15

Zr -2.951700200000001 0.5286979000000045 0.8932008999999983
Cu -2.4963970000000053 0.44820030000000344 -2.7405996000000012
Cu 0.5468997999999949 -3.022502899999999 0.8431005999999979
Cu -1.3270969000000044 -1.6719016999999994 -2.621098400000003
Cu -1.6031970999999992 -1.7139014999999986 -0.05549910000000047
Cu 1.1176013999999945 -2.0320015 -1.6470994
Zr 2.951700200000001 -1.6161995000000005 0.1989011999999999
Cu -1.147199600000004 -0.7709007999999997 2.404700400000001
Zr 2.5353031999999978 2.2358970000000014 0.450701699999998
Zr 1.0366000999999976 0.2942008999999999 2.7405996000000012
Cu 1.8828029999999991 0.22529980000000904 -2.2648992000000003
Zr -1.529897700000003 3.022502899999999 -1.4329996000000005
Cu 0.9266033 2.7019004000000066 -1.639699000000002
Zr -0.3791979999999988 2.8103981000000076 1.6330022999999994
Zr -0.11509890000000311 0.05820080000000161 -0.36549850000000284
