16

Cu 0.9179993000000035 0.742553700000002 -3.1798992499999983
Zr -0.7534980999999963 -1.7888488999999907 -3.1466007499999975
Zr -2.4825 -0.3041458000000006 1.318799949999999
Cu 1.5489998000000025 -2.1801452999999924 0.399499849999998
Cu -1.0584983999999995 -2.681350699999996 0.08040044999999907
Cu 1.5191994000000033 -1.9797439000000026 -2.205701850000004
Cu 2.208499899999998 0.19544980000000578 1.4102001500000014
Cu -2.864700300000001 -1.4215468999999956 -1.3671016500000022
Zr -2.191398600000001 1.4473495000000014 -1.9775981499999986
Cu -1.8436011999999966 2.0330505000000016 0.6139011499999967
Zr 0.9113007000000035 2.681350699999996 1.056200050000001
Cu 0.7322006000000041 2.631050099999996 -1.5586986500000037
Zr 2.864700300000001 0.511352500000001 -1.2907009500000015
Zr -0.10430150000000005 -0.8528441999999927 3.1798992499999983
Cu -0.7401008999999963 1.738349900000003 2.7379016499999977
Zr 0.1231003000000026 0.08795170000000496 -0.3524990499999987
