13

Cu 0.5241011999999996 -0.32744984999999893 -2.688148499999997
Cu 2.4326 0.5031509500000002 -2.2225494999999995
Zr -2.6781996999999995 0.22604934999999848 -1.1441497999999939
Cu -1.8889989999999992 1.1143493499999995 1.136650099999997
Zr -1.413099299999998 -2.595850050000001 -2.088249199999993
Zr -1.0425996999999994 -1.8664493500000017 1.4513472999999948
Cu -1.3471994999999994 2.6275501499999994 -0.6501465000000053
Cu -0.1971988999999974 0.808250450000001 2.688148499999997
Cu 0.9944000000000015 2.247550949999999 -0.9783477999999945
Cu 1.7098999000000026 -2.6275501499999994 -1.418151899999998
Zr 2.6781996999999995 1.0389500499999986 0.7874527000000029
Zr 2.1626014000000024 -1.9691505500000002 1.2902526999999964
Zr 0.3455009000000002 -0.3516502500000005 -0.267951999999994
