15

Cu -0.161651599999999 -2.325399400000002 -0.84880975
Zr 0.35354610000000264 -0.37449840000000023 -2.97349975
Cu -1.7811506999999978 -0.9426975000000013 -1.7124900500000004
Zr 0.6108475000000055 2.5040989000000025 -1.99652005
Cu -1.1825560999999993 -2.326498000000001 1.4767804499999997
Zr 2.4931488 -1.742799699999999 -1.3169698500000004
Zr 1.074951200000001 -2.5040989000000025 2.97349975
Cu -2.712150600000001 0.05809980000000081 1.4938902499999998
Zr -1.8379516999999908 2.0543995000000024 0.33490034999999985
Cu 2.712150600000001 0.8644008999999997 -0.3161101500000001
Cu -0.2471541999999971 0.9480000000000004 2.8867001499999994
Cu 2.592948899999996 -1.517400699999996 1.1023402499999992
Cu 1.9880447000000032 0.7852001000000044 2.1720004500000005
Cu 0.806549099999998 2.448801000000003 0.9776797500000001
Zr 0.22464750000000322 -0.19169809999999643 0.4910597499999998
