15

Cu -2.5955495499999994 1.3436489499999986 -0.29854965
Cu -1.68925005 0.6653499500000031 -2.3168486500000025
Cu 0.15104955000000153 -1.9310512499999994 -1.6212501499999998
Zr 0.5496511500000008 0.9357509500000027 -3.1235504500000015
Cu -0.3863496499999979 2.6312503499999984 -1.2771492500000026
Cu 2.516650150000002 2.1568508500000014 -0.9986496500000026
Cu 2.4806508500000017 1.6674518500000026 1.5170516499999973
Cu 0.301650050000001 2.4014492500000024 1.0915489500000017
Zr -2.0938501499999997 -1.5153484500000012 -0.23204804999999773
Cu -1.3084497499999994 1.0577488499999994 2.196949049999999
Cu 2.5955495499999994 -0.25285144999999787 -0.032051050000001524
Cu 0.5372495500000003 -2.6312503499999984 0.6063499500000002
Zr 1.7236509500000015 -0.5659503499999978 3.1235504500000015
Cu -0.9755487499999997 -1.815748150000001 2.5347519499999986
Zr -0.1558503499999997 0.15994834999999696 0.28995135000000083
