14

Cu 2.0481530000000063 0.7771702500000006 -1.4075030999999996
Zr -0.5410498999999973 0.24194055000000025 -3.0789012999999983
Cu 0.7331505000000007 2.610389750000001 -2.809503499999998
Zr -2.0360449999999943 -1.8331198499999997 -1.1897030000000015
Zr -3.0605507000000003 0.6892204500000001 -0.35099980000000386
Cu -2.099048599999996 1.2818099500000009 2.0921993999999984
Cu -1.2463492999999985 -0.9876899499999996 1.576997900000002
Zr 0.22605519999999757 -2.8400898499999996 0.7624988999999971
Zr 3.0605507000000003 -1.5827698499999996 0.30889700000000175
Cu 0.8456535999999986 -1.61023995 -1.4912013000000002
Zr 0.37514890000000634 0.8591499500000004 3.0789012999999983
Cu 1.9343529000000004 1.64749055 1.0544986999999963
Zr -0.34564590000000095 2.8400898499999996 -0.19390299999999883
Cu 0.0596504999999965 0.45244975000000087 0.0198993999999999
