12

Cu 0.4210895999999993 -2.9078025999999966 -0.12444948499999242
Zr -0.3567 2.9078025999999966 0.9149506150000022
Zr 0.060909699999999845 -1.1024970999999937 1.9182007150000047
Cu -2.3566203000000003 0.2764015999999998 0.6053805150000073
Cu -1.4941502 0.944500000000005 2.958010415000004
Zr -2.3322702 1.6422005000000013 -1.7896144150000026
Zr 2.3566203000000003 0.9669990999999953 1.2093506150000053
Zr -2.0320001000000003 -1.9118004000000042 -1.4755123150000031
Cu 1.8888401999999997 -1.0891991000000019 -0.8535292849999934
Zr 0.4072298999999999 -0.06969829999999888 -2.958010415000004
Cu 0.7874893999999992 2.129001599999995 -1.6869173849999939
Cu -0.39466999999999963 0.23929979999999773 -0.3897492849999935
