15

Cu -1.3613510499999961 -1.2653484500000047 -2.7038994000000045
Cu 0.6979483500000043 -0.013151150000005885 -2.993000000000002
Cu -0.9342499499999946 0.7421513499999932 -1.5930976999999942
Zr -2.2566528499999947 -2.2243480500000032 -0.21099469999999343
Cu -2.60055165 0.3538532499999931 0.5186042999999998
Cu -1.2276497499999977 -2.144948850000006 2.7335014000000015
Cu 2.60055165 -2.6928463500000035 -0.8484000999999992
Cu 0.9475516500000083 -2.837648350000002 0.562801400000005
Cu 0.8027457499999997 -0.4082469500000059 2.993000000000002
Cu 2.4126472500000062 1.084054949999988 -1.563594799999997
Cu 2.563846650000002 -1.650148350000002 1.7882042000000027
Zr -1.4459533499999964 0.7090549499999881 2.6343041000000014
Zr -0.45244974999999954 2.837648350000002 0.6225013999999973
Zr 2.568546249999997 1.450349850000002 1.1183052000000018
Zr 0.35014725000000624 -0.38014795000000845 0.154506700000006
