15

Zr -1.4094009499999984 1.2059459500000038 -2.4701500000000003
Cu 1.58100125 -0.22194864999999808 -2.3850479
Cu -1.84260175 -2.5498524499999995 0.39565279999999703
Cu -2.35649875 -0.715150849999997 1.7254524999999994
Zr -2.9522018500000016 0.8520488499999921 -0.12174979999999991
Cu -0.6604995499999973 2.96384995 -0.6233482000000059
Cu 0.8333015500000016 -2.96384995 -0.2602501000000039
Zr 2.9522018500000016 -0.9042529499999965 0.18515019999999893
Cu -0.7789001499999983 -1.5448475499999965 -2.102550500000003
Cu 2.7605018500000043 1.440252250000004 -0.7821502000000002
Zr 1.7053985499999982 2.8010463499999965 1.133651799999999
Cu -1.044498449999999 1.7315501499999932 1.8204498999999963
Zr 0.6870994499999981 -1.865350750000001 1.9692497999999965
Cu 1.3544007500000035 0.6348476500000011 2.4701500000000003
Zr 0.2146987500000037 0.2210521499999949 0.16645049999999983
