16

Cu -1.8039512500000008 -2.379549049999998 0.25464825000000246
Zr -2.5991497499999987 -1.0007495499999983 -2.161550550000001
Cu 0.24614904999999965 0.06495095000000006 -3.0962505500000006
Cu -2.89274975 0.055849049999995515 0.14325145000000106
Cu -0.14385035000000101 -1.9484500500000017 -1.5961513499999995
Cu 0.0701503499999987 1.997949649999999 -1.174749349999999
Zr 2.89274975 -1.1874485500000027 1.557748850000003
Cu 2.1208496500000003 -0.7871494500000047 -1.436750349999997
Cu 1.0980491499999978 -2.790250750000002 0.6240482500000013
Cu -1.4396495500000022 2.461149250000002 1.3336505500000015
Cu -2.0263500500000013 -1.0801486500000017 2.557550450000001
Cu -0.18894955000000024 1.2069492499999974 2.7524509499999965
Cu 0.7489490500000002 -1.3454494500000003 3.0962505500000006
Zr 2.5452499499999988 1.4122486499999987 0.8098507500000025
Cu 0.5363502499999981 2.790250750000002 0.6707477499999968
Zr -0.023950550000002124 -0.5179499499999984 0.2548503499999981
