12

Cu -2.209798849999995 -1.4484501000000005 -0.9262009500000019
Cu -1.0235996499999978 0.8708496999999991 -2.602996850000004
Cu -3.0491008499999985 1.2534504000000002 -1.0155030499999995
Zr 0.9678020499999995 2.220050800000001 -0.588600250000006
Cu 1.0072994500000014 -1.0278490999999992 -0.6931000500000053
Cu -2.879598649999995 -0.720748900000002 1.2191008499999967
Cu -0.7758007499999984 -2.774549500000001 1.179702650000003
Cu -1.9932994499999985 1.9143504999999994 1.2002028500000037
Cu -0.3085003499999992 2.774549500000001 2.602996850000004
Zr 3.0491008499999985 0.3544502000000005 0.16519924999999347
Zr 0.023401250000002705 -0.060749100000000666 2.4850997499999963
Cu -0.6122989499999996 0.3348502999999976 -0.07430275000000819
