11

Zr 0.2804503500000006 -2.390550600000001 -1.6708526499999934
Cu -2.2784495499999995 -0.784448600000001 -0.4245452500000013
Cu -0.7422498499999985 0.328550400000001 -2.5538482499999944
Cu -1.1753496499999994 -2.392049799999999 0.681251550000006
Cu -0.04444924999999955 -1.4901485 2.5538482499999944
Zr -1.8350500499999995 0.8005505000000035 1.6547546499999939
Zr -1.355849749999999 2.392049799999999 -1.0199508499999936
Cu 0.7267499500000003 1.840948100000002 1.1130523499999967
Zr 2.123349750000001 0.8210506000000031 -1.2794494499999942
Cu 2.2784495499999995 -0.42695039999999906 1.1968536500000013
Cu 0.16135075000000043 -0.2029513999999999 0.09735105000000743
