12

Zr -1.168800400000002 -1.944900550000007 -1.8822555999999935
Cu -2.1113968000000014 -0.2515030500000037 0.7318496999999979
Zr 0.23760229999999893 -2.4610977500000004 0.8480454000000037
Cu 2.710403399999997 -0.7667007500000054 1.3848495999999955
Cu -0.32440190000000513 1.3786011500000015 -2.500549300000003
Cu -2.7340010999999933 0.5618972499999941 -1.772155799999993
Cu -0.3955994000000018 2.4610977500000004 0.47764589999999885
Zr 1.9824980999999937 2.1486968500000003 0.7281494000000066
Cu 2.0684050999999997 0.9277953499999896 -2.149154600000003
Cu 2.7340010999999933 -1.4233017500000003 -1.1368559999999945
Cu 0.22879789999999645 -0.7833023500000067 2.500549300000003
Cu 0.40229790000000065 0.14589684999999264 -0.30125429999999653
