16

Cu -1.1414985500000085 1.241802100000001 -2.34448505
Zr -2.1013983499999966 -1.6357003000000034 0.7595949499999999
Cu 0.8185997500000042 -2.1143991 -2.05561515
Cu -1.661602049999999 -1.2873002000000042 -1.6695751499999996
Cu 1.338695549999997 0.3193014999999946 -2.72649485
Zr 0.8162956500000007 -3.000099200000001 0.3278751500000001
Cu 2.950901049999999 0.835601699999998 0.17194515000000044
Cu 1.6732978499999973 2.391200900000001 -1.5374350499999996
Cu -1.0079994499999998 2.584899799999995 -0.41073505
Cu -0.754802650000002 1.2462996000000004 1.9843350499999999
Cu 0.11749645000000442 -1.2973977000000048 2.7264948499999995
Cu 1.9040946500000047 0.7449987999999976 2.4051552499999995
Cu 2.607296050000002 -1.3558999000000043 1.2399249500000002
Cu -2.950901049999999 1.2522009999999995 -0.28901524999999983
Zr 1.5352974500000016 3.000099200000001 1.27905515
Zr 0.16360095000000285 0.17850099999999713 -0.039025249999999456
