11

Cu 2.3739471499999993 -0.46669774999999447 -1.1016502499999987
Zr 1.0857467500000055 1.8226012500000053 -2.488849649999999
Zr -0.33405294999999313 -1.1000977500000033 2.488849649999999
Zr -2.3739471499999993 -0.9303970499999963 -0.8151511499999984
Cu 0.14614875000000183 -1.1386032500000027 -2.4457511499999995
Cu -0.3274535499999942 -2.1987991499999993 -0.1610526499999949
Cu 1.964248650000009 -0.5096969499999915 1.2869491500000052
Cu -1.630050649999994 1.4329986500000018 1.0791474500000007
Cu -1.1555480500000002 2.1987991499999993 -1.3674507499999962
Zr 1.8908462500000027 1.9744033500000029 0.6017494499999998
Cu 0.05695345000000174 0.21569825000000264 -0.4255523499999967
