14

Cu -0.9717980000000068 -0.8265457500000011 -2.5072479500000036
Zr -2.613796199999996 -1.481147650000004 -0.8739509499999976
Cu -0.4624977999999942 -2.9409484500000005 0.3480491499999978
Cu 0.9920996999999971 0.21745295000000198 -2.522449550000001
Zr 1.0972021999999981 -2.824150050000007 -2.0060501500000036
Cu 2.6411018000000013 -0.6132506500000048 -0.7066498500000016
Zr 1.4083976000000007 -1.234146150000008 1.4447517499999982
Zr 1.1516989999999936 2.4243545499999968 0.2136497499999983
Zr -2.6411018000000013 1.7829513499999976 -1.8504486500000006
Cu 0.15189739999999574 2.9409484500000005 -2.14735035
Zr -1.7991982000000064 -1.5247496499999968 1.9455489499999992
Cu 0.40670400000000484 0.8304519499999898 2.522449550000001
Zr -1.6996957000000066 1.9201507499999977 1.1040496499999968
Cu -0.21809779999999535 0.10075375000000264 -0.3554496500000006
