13

Cu -0.3312510999999958 0.16317039999999938 -2.6475701000000003
Zr -0.23975169999999935 -2.6446700000000005 -1.2753500999999998
Cu 0.6367511999999991 2.1457705999999996 -1.954309900000001
Cu -2.9485492999999963 0.35847050000000014 -2.0800404000000006
Cu -1.5709513999999984 -0.7342295000000005 0.3431696999999998
Zr -1.679052299999995 2.1771702999999993 -0.44477030000000095
Zr 2.2985478000000086 -0.2182296999999993 -2.2640900999999998
Zr 2.6824512999999968 2.6446700000000005 -0.5847602000000007
Zr 1.3763484999999989 1.7214704000000003 1.7246698999999994
Zr 2.9485492999999963 -1.3306297999999996 0.9423699999999995
Cu 0.18934820000000485 -0.7330297999999997 1.8100695999999994
Zr -2.005350100000001 0.40016990000000074 2.6475701000000003
Cu 0.1805476999999982 0.029170599999999602 -0.2728305000000004
