12

Cu -1.2276992499999935 -1.949451450000005 2.1889991
Cu -0.913101250000004 -1.99325185 -0.4894008999999997
Cu -1.1465988499999966 0.8808479499999962 -1.6294995000000014
Cu 1.0819015500000049 0.48244854999999376 -2.506700500000001
Cu 1.2252044499999997 -1.937450449999993 -1.450201100000001
Cu 2.5803985500000053 0.24345014999999393 0.28170009999999834
Zr 0.8331985499999988 2.394947050000006 0.028200099999999395
Zr -2.5803985500000053 0.006549850000006074 0.4883002999999988
Cu -0.7602997499999944 1.4673499500000062 2.0911998999999994
Zr 1.1893996500000057 -2.394947050000006 1.311899099999998
Cu 1.7330017500000068 0.7139472499999968 2.506700500000001
Cu 0.07099914999999868 -0.19095234999999633 0.3780001999999989
