15

Zr -1.2172479500000009 -2.741550450000002 -1.7623510499999995
Cu -0.8179483499999982 0.09824754999999996 -2.6643495500000007
Cu -2.7770490499999987 -0.34275055000000165 1.3170499499999977
Cu -1.7456483499999997 -2.671852149999996 1.1257505499999994
Zr 1.8734522499999997 -1.4704513500000012 2.662549049999999
Cu 0.8182497499999997 -2.303451550000002 -0.2553510500000016
Cu 1.641049350000003 1.1210479500000012 2.1591500499999974
Zr 3.0440492500000005 -0.3825492500000003 0.03295035000000013
Cu -3.0440492500000005 0.2047500500000048 -1.306050250000002
Zr -1.650048250000001 2.741550450000002 1.2582502499999997
Cu -1.5515488499999996 2.3313484500000037 -1.6318502499999994
Cu 0.8272524500000031 2.099147850000005 -0.34735015000000047
Cu 1.6922502500000007 0.002948749999998057 -1.7919512500000003
Cu -0.6206482499999986 -0.02605054999999723 2.6643495500000007
Zr -0.24994945000000257 0.07135015000000422 0.09484954999999928
