12

Zr 2.6488990999999977 -0.4711003499999995 -1.852250999999999
Zr -2.6488990999999977 -1.3494000500000007 -0.4913501000000018
Cu -0.34910199999999847 -2.744599850000001 -0.9326496000000013
Zr -0.46170040000000157 -2.570399750000001 2.0967503
Cu 1.5868988000000037 -2.630000550000001 0.5001506999999954
Cu -0.25080110000000033 0.26799914999999874 -2.135049800000001
Zr -1.6112021999999975 2.0304999500000003 -0.8123493000000046
Zr -1.672000899999997 0.4342990500000008 2.096948600000001
Cu -0.3435019999999973 2.744599850000001 1.5441493999999985
Zr 2.0186005000000016 1.8483004500000009 0.2845515999999968
Cu 1.6422996999999988 0.016299749999999058 2.135049800000001
Cu 0.3176002999999987 -0.2613005500000005 -0.06875030000000137
