13

Zr 0.6376495000000002 0.08998984999999982 -2.6202506999999997
Cu -1.3872508999999997 -1.496239950000001 0.8990517000000011
Cu -1.525050199999999 -1.8670499500000006 -2.0276488999999955
Cu 1.3575497000000016 -2.3621198500000005 -0.8401489999999967
Cu -2.3846501999999994 0.31570984999999974 -1.043750799999998
Cu -1.6233500999999997 1.0510299499999998 1.1949500999999998
Zr 0.414249400000001 -0.1512401500000009 2.6202506999999997
Cu 0.3384495000000012 -3.0346801500000007 1.4697494000000049
Cu 2.3846501999999994 -0.35024005000000047 0.016551900000003172
Zr -1.0556506999999993 3.0346801500000002 -0.8154487999999986
Cu 2.1440497 1.8704001499999987 -1.1213492999999985
Cu 1.1420499 1.9490802500000002 1.3878516999999988
Cu -0.013250299999999271 0.20951004999999912 -0.19435119999999984
