16

Zr 0.6174488000000018 -2.6963501 -0.668052700000004
Cu -0.2947482999999984 -0.5834502999999991 -2.8960495000000037
Cu -2.1434497999999955 -0.7205505000000052 -1.226547299999993
Zr -3.021150600000002 2.015651699999996 0.055847100000008254
Cu -1.978948599999999 1.9636497000000013 -2.2654495999999966
Cu 0.9682484000000038 2.6963501 0.4027480999999966
Cu 2.3418484 2.1117515000000004 2.3407516000000044
Zr 2.5431500000000007 -0.5388488000000002 -2.4604491999999993
Cu 3.021150600000002 2.1848525999999957 -1.2678526999999917
Zr 1.103750200000004 2.1373519999999964 -2.8722534000000053
Cu -2.158449199999996 0.7252502000000014 2.119850100000008
Zr -1.3473490999999989 -2.204948500000004 1.5212477999999976
Cu -0.1920490000000008 2.0700492999999973 2.770347600000008
Cu 0.5410481000000011 -0.6210479999999983 2.8960495000000037
Zr 2.860250500000003 0.08214949999999632 0.8251494999999949
Zr 0.1361485000000009 0.4004517000000014 0.16404719999999884
