12

Zr -1.9011497499999983 0.29849815000000035 -2.5423001999999997
Zr -1.6927490499999998 -2.3043003499999983 -1.8709201999999996
Cu 1.102951050000005 -2.454599349999995 -1.0912898999999996
Zr -1.0118522500000005 1.1469974500000006 1.7229995999999996
Cu -2.8259506499999993 -0.6204014499999957 -0.26744029999999963
Cu 1.2463493499999991 -0.7884006499999998 2.5423001999999997
Zr -0.7422522499999964 2.592000949999999 -1.3726200999999998
Cu 2.8259506499999993 -0.8173008499999952 0.21545979999999965
Zr 2.291549750000005 1.8091983500000026 -0.11071009999999948
Cu 0.796649949999999 -0.40929984999999647 -2.3623499999999993
Zr -0.6780509499999958 -2.592000949999999 1.2022200000000005
Cu -0.08164975000000041 -0.7208004499999987 -0.4074801999999993
