12

Zr -2.0068493000000025 2.7998398200000025 -0.7252998500000025
Cu -2.4147511 -0.34853832000000295 0.46640014999999835
Cu -1.2373486000000007 1.6318508199999968 -2.9137001500000004
Zr -2.6737499000000007 -0.6796387199999998 -2.289899850000001
Cu -1.6942501000000014 1.922831819999999 1.6109008500000002
Cu 0.4954509999999992 2.4843598200000017 0.10799984999999879
Zr 0.3254490999999966 -2.7998398200000025 -1.36669925
Zr 1.5057505999999954 1.0114623799999976 -2.8802985500000027
Zr 2.6737499000000007 -0.3277405200000061 0.0627002499999989
Zr -0.053651800000000804 -0.8306397200000077 2.9137001500000004
Zr 1.0798511999999967 1.7662748199999996 2.5060996499999995
Zr -0.048849100000001755 -0.050038220000004685 -0.42860034999999996
