15

Zr -1.092994950000001 -0.9008493000000009 -2.7867498499999996
Cu 1.2644956499999993 0.5655508999999981 -3.0952501499999983
Cu 1.143495349999999 -2.035449 -3.049050349999998
Cu -0.4917443500000007 -2.8373498999999995 -0.8271493499999991
Cu -2.78209475 -1.078150700000002 -0.9246492499999981
Cu -0.36030495000000107 1.4108495999999988 2.1499491499999976
Cu 0.04781504999999919 -2.500950800000002 1.4850511500000003
Zr -2.85739495 1.444449500000001 -1.3566502499999977
Cu 2.85739495 0.6533498999999985 -0.6973504499999983
Zr 2.27289555 2.0369500999999985 1.0878496500000026
Cu 2.0619952499999994 -2.1894503000000007 -0.07235044999999829
Zr 1.5729950499999998 -0.5946493000000004 2.6113519499999995
Zr -0.4063647499999994 2.8373498999999995 -0.24714944999999844
Zr -1.5600845500000005 -1.334849300000002 3.0952501499999983
Zr -0.07095455000000106 -0.2641497000000008 -0.06274884999999841
