17

Cu 2.3385467900000023 1.5517998000000013 -0.22535039999999995
Cu -2.572749090000002 -1.5953997999999991 -1.4966498000000001
Cu -0.13753310999999968 -3.1536006999999984 -0.4252500999999995
Zr 2.325486689999998 -1.7695998999999993 -1.0761499999999984
Cu 2.36084709 0.49370000000000047 -2.4257497999999984
Cu 0.8526468900000026 2.2012997 -2.4018507000000007
Cu 0.12107659000000126 -0.5394992999999992 -2.278050399999998
Zr 0.7293867899999995 -2.2124995999999975 1.8847494000000005
Cu -0.894803010000004 -0.45450019999999824 2.8498506
Cu 1.623246690000002 1.8101997000000019 1.7507504999999988
Cu -0.6549234100000021 1.9552995000000024 2.3536500999999994
Cu 2.6598462899999973 -0.45800020000000075 1.362151100000002
Zr -2.0724438900000024 1.0706005000000012 -2.8498506
Cu -2.6598462900000044 -1.0153998999999985 0.787449800000001
Cu -2.3784436900000117 1.2553005000000006 -0.1273489000000012
Zr -0.33265301000000136 3.1536006999999984 -0.20374969999999948
Zr -0.153503409999999 0.09530069999999924 0.15104960000000034
