13

Cu 0.36224744999999814 -0.7927998999999994 -2.2883987500000007
Cu -2.0140495499999957 -0.45599929999999933 -1.427999550000001
Cu 0.49924855000000434 1.7199010999999986 -1.06049915
Zr -0.9791450499999996 1.2628003000000012 -2.9291000500000006
Cu 0.2720527500000003 -2.8685999000000004 -0.8957004500000014
Cu 2.0140495499999957 -0.6119995000000005 -0.43019855000000184
Cu -1.325649249999998 -1.7147997999999989 1.0576000499999996
Cu 1.468250249999997 0.882300400000001 1.6063995499999972
Zr -1.388545949999994 0.7424001999999996 2.9291000500000006
Zr 1.1718483500000048 -1.6342992 1.7642001499999989
Cu 0.1507531499999999 2.8685999000000004 1.2782001499999982
Cu -1.9584502499999985 1.9338007 -0.14419935000000272
Cu -0.2827491500000008 -0.0758991 0.15999985000000017
