12

Zr 2.639168540000007 -0.7452506500000027 -1.2497501999999976
Zr -0.21936103999999546 -2.061550150000002 -2.360349699999997
Zr -1.2370612400000027 -2.16424945 0.941049600000003
Cu -2.565766139999994 -0.5386466499999898 -1.3520488999999962
Cu 0.7194986400000047 1.5467490500000025 -1.3892497999999982
Zr -2.63916854 1.9454536500000046 -2.0372486000000016
Cu 1.986978740000005 -2.0226478499999985 1.0244503000000016
Zr 0.2712318600000003 0.012447350000002189 2.360349699999997
Cu 2.197438440000006 1.1789512499999972 1.2709522
Cu -2.5226676399999945 -0.2604484499999984 1.3410510999999978
Zr -0.6555641399999956 2.16424945 1.064451199999997
Cu -0.07366254000000083 -0.06114574999999434 -0.44034759999999906
