12

Cu -1.3943480999999984 -0.19865415000000297 -1.9623008000000013
Cu -1.2024498000000001 -2.024650549999997 -0.11010120000000079
Cu -0.06005089999999669 -1.3455505500000058 2.3424001000000008
Zr 1.3192482000000005 0.562149049999995 -2.3424001000000008
Cu 0.2704506000000002 -2.175750749999999 -2.2739005
Cu -1.347148899999997 2.13105015 -1.0151000000000021
Zr -2.210449200000003 0.801345849999997 1.2575993999999984
Zr 2.210449200000003 0.7447509500000038 1.5868993000000007
Cu 1.7627486999999995 -1.5442504499999998 -0.4166007000000018
Cu -0.09584810000000132 1.5233459499999995 2.288399199999999
Cu 1.4792518999999977 2.175750749999999 -0.4574008000000003
Cu -0.1573486000000024 0.5421447499999985 -0.09820130000000127
