12

Zr 1.7824478500000005 0.1958982000000038 -2.905300150000002
Zr 0.7605476499999959 -2.504301100000001 -1.0348014500000033
Cu -1.5951499500000033 -2.0987013999999977 0.4134025500000007
Zr -1.4411506500000009 -0.9918995000000006 -2.1367988500000052
Cu -2.5316505499999984 0.8976002000000012 0.948802950000001
Cu -1.4771499500000012 1.6823978999999998 -1.3782005500000025
Zr 1.0551490500000007 2.504301100000001 -1.8056984499999942
Cu 2.5316505499999984 0.13409999999999833 -0.27540204999999673
Zr 1.0425491499999957 -1.3368014999999982 2.2206001499999957
Cu -1.0431518500000045 0.3071994999999976 2.905300150000002
Zr 0.5746498499999966 1.999097899999997 1.2756997500000011
Cu 0.18134695000000178 -0.11549949999999676 -0.10999674999999343
