13

Zr -0.22907525000000017 -2.5143251499999995 -0.6364517000000021
Zr 1.080694349999999 -1.6184043500000005 2.380451199999996
Cu -1.5443551500000003 -1.1907643500000002 1.1603508999999974
Cu 1.4599344499999996 1.0878248500000005 -2.5392494000000028
Cu 0.44197485000000025 -1.31581495 -2.820049300000001
Zr 2.4210150500000003 -1.0379047499999992 -0.369949400000003
Zr -2.3458049500000007 -0.21227455000000006 -1.5671500999999992
Cu -2.4210150500000003 1.2042255500000003 0.5796508999999972
Zr -0.3760450500000001 2.5143251499999995 -1.4555512000000022
Zr -0.2831552500000001 2.4579248499999995 2.043548600000001
Cu 1.9282648499999988 1.4951248499999998 0.8051491000000013
Cu -1.2235152500000002 0.27082545000000025 2.820049300000001
Cu 0.15256524999999943 0.04642485000000107 0.2592507000000026
