12

Zr -1.847650550000001 0.5601959500000007 -2.0233000999999966
Zr 1.9904499500000021 -0.38649745000000024 -2.2756995999999994
Zr -1.7939510500000004 -2.3542022500000073 -1.1520004000000021
Zr -2.6554508499999976 0.49449924999999695 0.8193015999999993
Zr 0.09324834999999965 -1.9793014500000012 1.5298004000000027
Cu -0.9885500499999971 2.487998949999998 -0.43439859999999797
Cu 0.9964505500000023 -2.487998949999998 -1.0215988000000031
Cu 0.33304785000000336 1.1810990499999932 2.2756995999999994
Cu 2.6554508499999976 -1.099601749999998 0.5792007999999988
Cu 0.9326497499999995 2.2109986500000005 -2.135498000000002
Zr 1.7478504499999978 1.913597149999994 0.44250109999999765
Cu 0.4436512499999985 -0.06130215000001016 -0.34809869999999776
