13

Zr 0.2248499500000003 -0.6002648499999994 -2.5039978000000005
Cu 2.484449650000001 0.1340748500000002 -1.4821013999999977
Cu 0.9485600500000002 2.0559651499999996 -1.0046996999999962
Cu -1.2375204499999999 1.6151655499999995 -0.8013991999999988
Cu -0.5622403499999997 -2.74736475 -0.7298965000000024
Cu -0.9468700499999994 -1.8258250500000006 1.5627976000000032
Zr -1.8648602499999996 0.9867655500000003 2.187896799999997
Zr 1.4599001500000002 -2.0382149500000004 0.6082993999999999
Zr -2.52125005 -0.6265852500000006 -0.47550199999999876
Cu 0.5711395500000007 0.1906649499999995 2.5039978000000005
Cu 0.1368897500000008 2.74736475 1.0771027000000046
Cu 2.52125005 0.7718655500000002 0.9485016000000073
Cu 0.052459950000000255 0.17873545000000046 0.2639007999999947
