15

Cu -0.5718488500000003 -0.318995000000001 -2.949100449999996
Cu -0.25674915000000276 -2.6334052000000003 -1.3144035500000015
Cu -2.100548650000002 -2.5288845 1.0776023499999994
Cu 1.844651149999999 -1.6140951999999995 -2.6335029500000005
Zr 0.4183511499999977 -2.418895300000001 1.3187980500000052
Cu -2.3492498500000014 -0.8206945000000001 -1.2181968500000053
Cu -1.8035498500000013 1.5240054999999995 -1.475200649999998
Cu -1.0945500500000005 2.0342049000000006 0.9932975500000012
Zr -2.6473493500000007 -0.009194900000000672 1.6658974499999957
Cu 0.6437501499999971 2.6334052000000003 -1.161403650000004
Cu 2.4772519499999976 0.18460510000000063 -1.1478996500000065
Cu 2.6473493500000007 -0.7590947000000003 1.1081962499999989
Zr 0.476250649999999 0.524505099999999 2.949100449999996
Zr 2.198851549999995 2.0054049000000003 1.2652015499999933
Zr 0.19565104999999683 -0.10899500000000018 -0.14580155000000872
