13

Cu -0.6368008000000014 -1.998935980000006 -2.4836998
Cu -1.4011002000000037 -1.7263435800000053 0.1688004999999997
Cu -1.8038998000000017 0.6981513199999938 1.0753002999999985
Cu -2.6788006000000006 0.2329614199999952 -1.8092003000000005
Zr 0.4144991999999963 2.3202316200000013 -2.4221000000000004
Cu 2.6788006000000006 1.3113615199999984 -1.6302994999999996
Cu 1.7260989999999996 -0.7957685800000007 -2.2135
Cu 1.1178988999999984 2.0765616199999997 0.43300059999999974
Cu 2.6622982000000004 -0.3781385800000052 1.0480005000000006
Zr 1.3985003999999979 -2.3202316200000084 -0.10269919999999999
Cu -1.3696995000000012 2.1292116199999995 -0.6630001000000014
Zr 0.1800993999999978 -0.5104285800000028 2.4836998
Cu 0.17149919999999774 -0.11762858000000165 -0.6954002000000017
