16

Cu 0.9769222400000075 2.133651650000001 -1.333652500000003
Cu 1.4164722400000045 -0.46184925000000376 -2.100551599999992
Zr 1.1945622400000033 -3.2242508500000007 -0.9920539999999995
Zr 3.099692140000002 -1.2770500500000033 0.9068488999999964
Cu 2.669032340000008 1.4288520499999997 0.7682457000000049
Cu -1.0287921400000073 3.2242508500000007 0.20944590000000218
Zr 0.8359520400000093 2.4409522499999987 2.870052300000008
Cu -1.3723895400000004 -1.5721474499999992 -1.2674522999999915
Cu -2.7515933399999994 0.6505507499999972 -0.6357536999999986
Zr -1.167494540000007 0.639949749999996 -2.902950299999997
Cu -3.099692140000002 -1.1015473500000006 0.6465492000000062
Cu -1.5075900399999966 1.152450550000001 1.4647483000000072
Cu 1.2465822400000093 -0.14854814999999988 2.902950299999997
Cu 0.7345721400000045 -2.3826485500000025 2.222248099999998
Cu -1.2695911400000028 -1.0310478500000038 2.4888496000000053
Zr 0.12296224000000677 0.08914944999999719 0.12244790000000805
