15

Zr -0.016460200000000036 0.5662498999999954 -2.899799350000002
Cu 0.6228496999999988 2.046245599999999 -0.6893005499999987
Zr -1.0175302000000004 -2.9292488000000034 1.2239990500000033
Zr 1.6118300999999997 -2.211849199999996 -1.7533988499999964
Cu -1.0730703000000004 -2.3192558999999946 -1.2200012499999957
Cu -0.3506696000000007 1.874050099999998 2.6096993499999996
Cu -3.0620301000000003 -1.2007560999999995 1.574897749999998
Cu -2.1739500000000005 0.8152504000000036 -1.6772994499999996
Cu 2.5976299000000003 0.7866478000000043 -1.517799349999997
Zr 3.0620301000000003 -1.0288506000000055 0.6105995500000034
Cu 1.0003301999999996 -1.7907523999999952 2.387397749999998
Cu 1.6262295 0.8243445999999963 2.4520988499999987
Zr -1.9286902000000001 2.9292488000000034 0.017498050000000376
Cu -0.9721601000000009 -0.4738503000000023 2.899799350000002
Zr -0.31086990000000103 -0.11595539999999716 0.2108001500000043
