14

Cu -2.8109006999999977 -0.6445502999999988 0.8975602499999993
Zr -1.9782018000000008 -1.6363486999999992 -1.5959399500000004
Cu 0.7923001999999997 -1.757148700000002 -1.6663800500000003
Cu -0.16910269999999628 -2.4526481999999987 0.8369499499999997
Zr 2.8109006999999977 -0.8274498000000037 0.08336984999999997
Cu 2.010497100000002 0.36885069999999587 -2.1199098500000004
Zr -2.0665005999999977 1.8725510000000014 -1.0393198500000005
Cu -0.1609010999999967 0.06715009999999921 -2.6393400500000004
Cu 1.047499700000003 2.4526481999999987 -0.67500005
Cu -0.6470002000000008 -0.46044919999999934 2.1428300499999993
Zr 2.4080992000000023 -0.6596489000000005 2.63934005
Cu 1.1170988000000008 1.7795485999999983 1.74224005
Cu -0.7949017999999981 2.112251299999997 1.4940601499999997
Cu 0.45579810000000265 -0.15024950000000104 0.2759300499999999
