11

Zr -2.7442409900000087 0.5275497500000004 -2.1489650999999994
Zr 2.7442409900000015 0.3172493499999991 -0.895375
Cu 1.2779910900000004 -2.52624885 0.7802246000000008
Cu -0.1659404900000112 -1.0434493499999977 -2.3642852
Cu 0.7202813899999967 1.0398502500000024 -2.241235
Zr -2.1252452900000094 -2.8175506499999994 -0.5366751999999999
Zr -0.30392881000000216 2.8175506499999994 1.7570446000000008
Cu 1.2625810899999976 0.28955084999999947 2.3642852
Cu -2.5698406900000066 1.1433506500000004 0.6851346
Cu -1.8569423900000146 -0.5460490499999988 2.293885
Zr -0.17598891000000094 -0.2176494499999979 0.16552519999999982
