15

Cu 0.14519885000000166 -2.0455699000000003 -1.5552997999999985
Cu -1.36989975 -0.5705694999999995 -2.7581997000000005
Cu -1.0048999500000004 1.6620296999999997 -1.9132003999999991
Zr -2.382699950000001 -2.7250303999999996 -0.14949979999999918
Zr 1.8110009500000022 -2.5431399 0.017801300000000353
Cu 0.2837982499999985 -2.2802396 2.111499799999999
Zr -3.023300149999999 0.01563020000000037 -0.726200099999998
Zr 1.7236977500000012 0.14003040000000055 -2.4133987
Zr -1.7847995500000007 -0.6829695999999998 2.0198002000000006
Cu -1.132101050000001 1.9175295000000006 0.7998008999999993
Zr 0.8740005499999999 1.0823301999999995 2.0688000000000013
Cu 0.8946990500000016 2.7250303999999996 -0.4895991999999989
Zr 3.023300149999999 0.9191298000000003 -0.13360019999999828
Cu 1.8789977499999981 -0.9242702000000005 2.7581997000000005
Cu 0.2763977500000028 -0.24047039999999953 -0.22399900000000095
