11

Zr -2.365400300000001 -0.5577468999999979 -1.5633030000000048
Zr 0.5174999000000007 -2.369346699999994 -1.068300200000003
Zr 0.28959839999999915 1.105750999999998 -2.656400699999999
Cu -2.127698900000002 1.4748534999999947 0.22069739999999882
Zr 0.3284015000000018 2.5778502999999944 0.9862995000000012
Zr -1.6611995999999998 -2.5778502999999944 1.0242976999999982
Cu 1.2736988000000018 -1.4016495000000049 1.4795970999999994
Cu 1.6298999000000016 0.21344759999999496 -0.5962008999999995
Zr -1.297399600000002 0.8304518999999999 2.656400699999999
Cu 2.365400300000001 1.1168518000000063 1.9515971999999948
Cu -0.4125003000000014 -0.2334519000000057 0.3297978000000015
