12

Zr -0.44245150000000066 0.44785120000000056 -2.5258502999999983
Cu 2.7256508000000004 -1.1134490999999986 -1.5980511000000028
Cu 1.3249473000000016 2.7068500999999987 0.10704990000000336
Zr -1.9710502999999981 0.1470508000000006 2.5258502999999983
Cu 1.9778480999999992 -1.3217486999999988 0.7446499000000024
Zr 0.009349900000000133 -2.7068500999999987 -1.4595509
Zr -2.7256508000000004 -0.7468491000000004 -0.6499500000000005
Cu -0.42065049999999715 -1.7555503999999988 1.4064502999999995
Cu 1.328449200000005 1.4940510000000007 1.966348700000001
Cu -1.0250510999999953 2.154550500000001 -0.5636501000000003
Cu 2.2423477 0.8018513000000009 -0.5150509000000021
Cu -0.1317519999999952 0.2333507000000008 0.11934849999999741
