13

Cu -1.6048296999999998 -2.6542449 0.1369513999999974
Cu -1.9485697999999996 -0.7373241999999998 -1.359249100000003
Cu -1.4639897999999993 2.0265451 -1.1043510999999988
Cu 0.2885199000000007 -1.6510749000000002 -1.8300513999999986
Zr 1.907710100000001 -2.0265646000000004 0.353248599999997
Zr 0.8889103000000009 0.7455449000000005 -2.9182511000000027
Zr 2.9046097 0.5029655000000002 -0.5701484999999984
Zr -0.7878799999999995 -0.9479050999999998 2.022548699999998
Cu 0.9011297000000003 2.6542449 0.11975099999999728
Zr 1.862210300000001 0.5285153000000005 2.289050999999997
Zr -2.9046097 1.3541454999999996 1.0918503000000008
Cu -0.40623949999999986 1.6128449000000007 2.9182511000000027
Cu -0.11682989999999904 0.2506050999999996 -0.16104890000000083
