14

Cu -1.2585997000000004 -2.7677994499999983 -0.8988999999999976
Zr -1.8695998000000005 -0.5092010499999944 -2.1164007
Zr 1.4536004 -3.005699149999998 -0.614600099999997
Cu 0.835299 -1.3363991499999983 -3.0982999999999983
Cu 2.5415006 -0.6006012499999969 -1.2405003999999984
Zr 1.2580991 1.836502050000007 -2.7841004999999974
Cu 1.9315991999999982 -1.7164993499999994 1.4793005000000043
Zr -0.7294001000000021 3.005699149999998 -1.4261998999999967
Zr -2.5415006 0.07900235000000322 0.7501975000000023
Cu 0.9245992000000003 -0.40069964999999996 3.0982999999999983
Cu -0.47700059999999933 -2.0294990499999983 1.665099300000005
Cu -0.15430020000000066 2.5707015500000097 1.3003989000000011
Zr 2.2771993000000004 0.7770995500000026 1.100699500000001
Zr 0.19479990000000047 -0.15340044999999947 -0.4384011999999977
