13

Zr -0.2890529000000015 -3.0116501000000007 0.5952701499999988
Zr -2.561750400000001 0.9958496000000032 -2.2765402500000005
Cu -0.2643527999999975 -1.544452599999996 -2.3041200500000003
Cu -0.018751100000002907 0.7398490999999972 -2.7195701500000005
Cu 2.1207484999999977 -0.5805510999999974 -1.8612299500000007
Cu -1.0816516000000007 2.4169503 -0.7723503500000004
Cu -2.110250399999998 1.6637497000000003 0.9485693499999992
Zr 2.417150499999998 2.665649400000003 -0.5837602499999996
Cu -2.287149400000004 -1.0586510000000011 0.4877700499999995
Zr 2.561750400000001 -1.4968528000000028 0.6748695499999999
Cu 0.48734859999999713 3.0116501000000007 1.27446935
Zr -0.3406505000000024 -0.06045150000000277 2.7195701500000005
Cu 0.053850199999999404 0.3415490000000041 -0.09883025000000112
