16

Cu -0.16350175000000178 -1.7495536999999928 -2.4402504500000006
Zr -2.387401450000006 -2.5407524000000024 -1.0281504499999983
Zr 0.6785011499999953 -3.017551400000002 0.30884934999999913
Cu -2.335803950000006 0.1075476999999978 -1.7629509500000005
Cu -1.7397040500000074 2.1296501000000063 -0.060249249999998256
Zr 2.1011009499999957 -0.7405509999999964 -2.6538505500000014
Cu 2.4094963499999906 0.7693519000000038 -0.5451507500000012
Cu 0.33009725000000145 1.0576515000000057 -2.3945503499999994
Zr 0.8205986500000009 3.017551400000002 -0.33945084999999864
Cu -1.5741004500000102 -2.070247699999996 2.0026493499999987
Cu -2.475200649999998 -0.04414749999999401 1.1440505499999993
Cu 1.8483009500000023 0.9076500000000038 1.9627495500000016
Cu 2.475200649999998 -1.3053474999999963 1.403350849999999
Cu 0.20609664999999922 -0.9791527000000002 2.6538505500000014
Zr -1.0493049499999998 2.1024512999999985 2.437450349999999
Zr -0.16370005000000987 -0.073352799999995 0.03134915000000049
