12

Zr 0.18925474999999636 2.468474520000008 -1.221932664999997
Cu -0.44174964999999844 1.6342846200000096 1.3246679650000033
Zr -2.5471496500000015 0.6477044200000108 -0.17476193499999937
Cu 1.8261489499999968 1.503324720000009 1.328037965
Zr 0.4758529499999966 -1.1105934799999915 2.4918377649999996
Cu -1.5944442500000022 -1.2391864799999937 -2.0095378649999986
Cu -1.131851250000004 -2.434973819999996 0.971198164999997
Cu 2.5471496500000015 -1.4833747200000005 0.9602279650000014
Cu -0.24694824999999554 0.6842945200000088 -2.4918377649999996
Zr 0.8104552499999969 -2.468474520000001 -1.7202312650000096
Cu 1.9386520500000088 0.5401745200000079 -1.0165340650000019
Cu 0.058250450000009835 -0.6705904799999871 -0.09454203499999636
