12

Zr 2.2443503999999947 -2.4276504500000016 -1.6702975999999978
Cu 1.5193518999999966 -2.4011496500000007 1.3108997000000002
Cu -1.9818459000000033 0.4142494499999998 -1.9794978999999984
Zr -0.4897498999999996 -1.6353492499999973 -2.2549992000000003
Cu 1.0829506999999907 0.6086502499999966 -1.938200000000002
Zr -0.020847300000006896 2.4276504500000016 0.5315991000000011
Cu -1.8370475999999982 -1.9961509500000005 0.4176998000000012
Cu -0.4274483000000018 -1.5134505500000017 2.2549992000000003
Cu -2.574649799999996 0.6402473500000028 1.5625019000000009
Cu 2.574649799999996 0.1384506500000029 0.11820029999999804
Cu 1.6100501999999963 1.2720489499999985 2.118002000000004
Cu 0.14445109999999062 -0.22945014999999813 0.2654019000000005
