13

Cu 0.4020995499999991 -2.5318012000000003 0.6642016999999996
Cu -1.3771019500000001 1.0929013000000047 -2.6107998000000023
Zr -1.41120145 -1.8495005999999954 -1.0546016999999992
Cu -2.052101150000002 -0.771100999999998 2.0044994000000003
Cu -2.6858005499999997 0.4493007999999996 -0.5767001999999977
Cu -0.5012016500000023 2.5318012000000003 -1.1350994000000014
Zr -2.0854015500000003 2.4217014 0.9091013999999973
Cu 0.6870994499999981 0.5240001999999997 -2.1335010000000025
Cu 1.785898249999999 -1.4007015000000003 -0.47559929999999895
Zr 2.6858005499999997 0.18279839999999936 1.4182987000000011
Cu 1.103998149999999 2.1682987999999987 0.9100017000000022
Cu -0.16660115000000175 0.3873005000000056 2.6107998000000023
Cu -0.5329017500000006 0.18319900000000544 0.655000600000001
