16

Cu -2.034200599999995 -1.347248099999998 2.0914268650000025
Cu 0.2880001000000014 0.8944511999999953 2.285406864999999
Cu 0.4707013000000053 -1.6812477000000037 2.436166765000003
Cu -0.051000599999998286 -2.8372497999999986 -1.6900653650000024
Cu 1.6426983000000028 -2.7411499 0.5189068649999982
Cu 2.8209020000000002 -0.8944472999999995 2.1925668649999963
Zr -3.1937999999999995 0.39205169999999967 -0.6751651650000028
Zr 2.8575002000000005 1.4044532999999966 0.955276965000003
Cu -2.022298799999998 2.139652199999997 1.1712269650000025
Cu 0.2571011000000034 2.8372497999999986 0.3012669649999964
Cu -2.2065981999999984 -1.8741493000000027 -0.7344684649999991
Cu -0.6765002999999972 -0.0796469999999978 -2.436166765000003
Zr 3.1937999999999995 -1.5834465000000044 -1.1499652649999987
Zr 1.6132985000000026 1.5168532999999975 -1.9610690650000109
Cu -1.1392993999999952 2.1737518000000016 -1.7704639649999976
Zr -0.04260059999999655 -0.21994780000000347 -0.02757313499999725
