14

Zr 0.821649500000003 -0.7115478499999952 -2.8922005000000013
Cu -0.7529507000000031 -2.0015487499999978 -1.3782005999999996
Cu -2.726850500000001 -1.7034492499999985 0.6555976000000072
Cu 1.4371471000000007 -0.9048500500000003 1.4642982000000018
Zr -2.1565495000000006 -0.27304844999999744 -2.6160011999999995
Cu -0.9712505 2.981849650000001 -0.2202033999999884
Cu 0.5020504999999993 2.32245245 -2.192302699999999
Cu -2.683950399999997 1.5858497500000013 0.7368965000000003
Cu 2.726850500000001 -0.23824694999999707 -0.35409930000000145
Zr 1.4056492000000027 2.937850950000005 0.501995000000008
Zr -0.221651099999999 -2.981849650000001 0.8446998000000008
Cu -1.5203494999999982 0.12435145000000603 2.5900001000000117
Cu 0.6717472000000022 1.1900520500000056 2.8922005000000013
Zr -0.23615080000000077 0.15805055000000579 -0.18270499999999856
