13

Zr -0.47634884999999727 -1.4610995999999972 -2.392701200000001
Cu -0.6107482499999968 1.1094989999999996 -2.749998999999999
Zr 1.893249650000005 0.03610040000000225 -1.855900799999997
Zr 1.3326492499999993 2.868101099999997 -1.917900999999997
Cu -0.90954975 -1.7829989999999967 1.3016005000000028
Cu -1.8034477500000001 0.3760013999999998 2.0437002
Zr 1.1938514500000004 -2.868101099999997 -0.17139909999999858
Cu 1.097850850000004 2.255899399999997 1.1080999000000027
Zr -2.8759498500000014 -0.31929970000000196 -0.37769799999999876
Cu -1.9116477499999966 2.0836010000000016 0.024699199999997035
Zr 2.8759498500000014 0.17640109999999964 1.0236005999999982
Cu 0.48725135000000463 0.4894008999999997 2.749998999999999
Cu 0.016052250000004875 0.3015003000000007 0.18369960000000063
