15

Cu -2.7622499499999993 0.14140134999999887 -1.4378003500000016
Zr -1.683850249999999 -1.933401049999997 -2.329400050000002
Cu 0.3667497500000003 -2.585500749999998 -0.6053990500000008
Cu -0.9601497499999994 1.521600750000001 -2.77949995
Cu 0.78024965 -0.9572009499999972 -2.9373998500000003
Cu 1.58364965 1.2811985500000027 -2.2463998500000013
Zr 2.7622499499999993 -0.7799014500000006 -0.4686994500000008
Cu -0.6006497499999988 2.585500749999998 -0.7321996500000001
Zr -2.462049349999999 1.3313007500000005 1.1582994499999995
Zr 1.92654995 1.8882007499999993 0.2983999499999985
Cu -2.3753499499999986 -1.6513996499999983 0.3450003499999976
Cu -0.8714494500000001 -0.6508007499999984 2.9373998500000003
Cu -0.03275015000000003 2.459901849999998 2.0525007499999983
Cu 0.6235504500000015 -0.41069984999999676 1.261099849999999
Cu -0.26885034999999924 -0.10859865000000113 -0.48009965000000143
