12

Cu -0.2956503499999954 -1.1425009000000035 -2.582050299999999
Zr -2.5864486500000012 -0.09389980000000087 -1.344352800000003
Cu -0.22484974999999707 2.4899988000000004 -1.631450700000002
Zr 2.3956489500000018 -1.961899800000003 -1.3916511999999983
Cu 2.5864486500000012 0.716599399999998 -1.3590507999999986
Cu -0.6903495500000005 -1.8823004000000036 -0.043849999999999056
Zr 0.8465499500000035 -2.7710008000000013 2.086749999999995
Cu -0.7219505499999954 -0.3116007000000014 2.582050299999999
Zr 2.558448850000005 -0.41549970000000336 1.3666496999999964
Zr -0.6488494500000002 2.012200299999998 1.087448099999996
Cu 2.525848450000005 2.7710008000000013 0.28344729999999885
Cu 0.4888496499999988 -0.012700100000001768 -0.3147507000000047
