15

Cu -1.55751485 0.26014994999999885 -2.9114474999999977
Zr 1.3728554499999999 -0.6421499500000003 -2.7680492999999977
Zr -0.6193844500000005 -2.578149850000001 -1.3422527999999936
Cu -0.061994749999999765 -1.7270498500000002 1.1600512999999957
Zr -3.05075475 -0.4491500500000001 -0.6606502999999968
Cu 1.8796150500000004 -1.7224502500000014 -0.49504660000000555
Zr 1.8057750499999998 0.17064954999999848 1.5623494000000058
Cu 0.08843544999999997 1.62014965 2.9114474999999977
Zr -1.70675495 2.31785015 -1.222150800000005
Cu -1.9598848500000003 2.4492492499999994 1.6436480999999965
Cu 0.23327514999999943 2.578149850000001 0.7486514999999976
Cu -1.1681549500000004 -0.3807506500000013 1.9853533999999975
Cu 0.8445452499999999 1.726348849999999 -1.1304530999999933
Cu 3.05075475 0.1949500499999992 -0.653249799999994
Cu -0.002204649999999919 0.17294974999999901 -0.33644680000000093
