14

Cu -1.45630025 -1.594900149999999 -1.277349449999999
Cu 0.24920034999999885 2.2040996500000016 -2.1865501499999986
Zr 0.9158006499999995 -1.2035999499999992 -2.686349849999999
Zr -1.9713997500000016 1.1394996499999994 -1.9134502500000004
Cu 0.9439998499999991 -2.75650025 -0.524749749999998
Cu 2.739699850000001 0.9543991499999986 -1.8170509499999987
Cu -0.8931994500000009 2.75650025 0.07995035000000073
Zr 2.1546999499999995 2.51370045 0.32595064999999934
Zr -0.19420005000000096 -1.6980991499999991 1.4299507499999997
Zr -2.739699850000001 0.3043004500000013 0.881250350000002
Cu 0.24840024999999955 1.1464996500000009 2.4796505500000023
Zr 2.6979995499999987 -0.7530002500000013 0.7652492500000001
Cu 2.289899349999999 1.2959004499999995 2.686349849999999
Cu 0.16270014999999916 0.5002002500000007 0.01544954999999959
