15

Cu -1.681900000000006 0.2277003000000004 -2.4881477000000025
Cu 0.07789619999999076 2.1533002999999997 -2.7870482999999986
Zr 0.7602996999999974 -0.5705003999999985 -3.527648899999999
Zr 2.276596099999999 -1.4595004000000014 -1.034351400000002
Cu 2.1100005999999993 -0.25260070000000034 1.5515518000000021
Cu -0.7151031000000003 -1.748099299999998 -1.0947494000000013
Zr -2.8029021999999983 -0.008299899999999028 0.4974517999999968
Cu -1.1860045999999969 2.3249997999999987 -0.5946503000000014
Cu -1.7373046000000087 2.2738008999999995 1.4124488999999976
Cu -1.4580993000000078 -2.3249997999999987 1.2781486999999991
Cu -1.0785980000000066 -0.4404002000000009 2.4051513999999976
Cu 1.0304946999999984 0.6111993000000009 3.527648899999999
Cu 0.6361999999999952 2.2531003000000016 0.8591499999999961
Zr 2.8029021999999983 1.8877001000000018 -1.352951000000001
Cu 0.11509709999999274 0.06939980000000112 0.02254869999999798
