12

Zr -1.3429801999999995 -1.1596947000000029 -2.598850249999998
Cu 1.34112 -1.0584984000000048 -2.39325135
Zr 0.7119199999999992 -2.355998999999997 -0.12305074999999732
Cu -2.1729801 -1.287700700000002 0.5834502499999985
Cu 2.4787198999999998 -0.6331978000000049 0.5098495499999984
Cu -2.4787198999999998 1.1825980999999928 -0.7485504499999998
Cu 2.1218196999999996 0.8716010999999924 -1.146949750000001
Zr -0.21288000000000018 1.9800986999999992 -2.1937504499999996
Cu -1.929499400000001 0.3530997999999954 2.285350749999999
Zr 0.6014207000000003 -0.6292992000000055 2.598850249999998
Zr 1.1551200999999995 2.355998999999997 0.9284477500000037
Cu -0.26937940000000005 0.2386053999999973 -0.41654974999999794
