17

Cu 1.0652149599999987 1.4397964499999958 -2.5603990000000003
Cu 1.4357135599999893 -1.7983016500000062 -2.1743993999999986
Zr -0.9710857399999995 0.0929946500000014 -3.0927992000000017
Cu 2.0009363400000026 2.5544967500000055 -0.9668989000000003
Cu -1.0409862400000023 -3.055999750000005 1.1692017999999997
Cu 1.051512559999999 -2.8665008500000013 -0.39379980000000003
Cu 2.8450863400000017 0.16849515000000537 -1.4588995000000011
Cu 2.6572363400000043 -1.4436034500000048 0.7608004000000008
Zr -1.5894862400000065 -2.299301149999998 -1.5243998000000012
Cu -2.512086140000001 0.45899965000000265 -1.2417994000000014
Zr -2.8450863400000017 -0.08399965000000265 1.3705014999999996
Zr 0.13361246000000193 -1.1327056499999983 3.0927992000000017
Cu 0.10081365999999292 1.8727951499999946 1.6227006999999993
Zr 2.6972263400000003 0.8209991499999987 2.2212019000000005
Cu -0.2173855400000022 3.055999750000005 -0.597699200000001
Cu -2.2603847399999992 2.7560959499999953 0.12330150000000017
Zr 0.06741215999999639 -0.040702849999995294 -0.1776990000000005
