15

Cu 1.8101854500000005 -0.3267002000000012 -2.5981007
Cu -0.4681053500000001 -1.7902011999999985 -2.4022999000000027
Cu 3.07318495 0.9443988999999995 -0.9199999999999982
Cu 0.8316049499999991 1.7300986999999992 -1.8430996000000022
Zr -1.87685485 0.8514996000000004 -2.4773998000000006
Cu -1.89248465 -1.6527004000000005 -0.8416996000000019
Zr -1.2684450500000004 -2.1895999999999987 2.1519985999999953
Zr -3.07318495 0.6070002999999993 0.8196010999999963
Cu -0.7992949500000002 0.9568003999999988 2.5981007
Cu 2.9909849499999996 -1.1193999999999988 0.5286998999999959
Cu 1.1351051499999993 -0.6951007999999987 2.273099999999996
Zr 0.8156347499999992 -2.896200199999999 -0.4483013000000007
Zr -0.7762946500000005 2.896200199999999 -0.23290060000000423
Zr 1.8368854500000005 1.9636993000000018 1.5827007000000002
Zr 0.004975350000000489 0.07320019999999872 0.01600079999999693
