13

Cu -2.3989486499999977 -1.7049980000000104 0.0280990999999986
Cu 2.252349849999998 -2.493396699999998 0.7192993000000101
Zr 0.884448950000003 -2.6646995999999987 -1.5317991999999876
Cu 2.3989486499999977 -0.5254021000000009 -0.46779639999999034
Cu -0.940750149999996 -1.455402400000004 -2.5774994000000007
Cu -0.3291511499999977 -2.132198300000006 1.3103027000000012
Cu -1.8754501500000025 0.8724022000000033 -0.8440017999999938
Zr 0.5695495500000014 0.9008979999999909 -2.399696399999989
Cu -0.6990509499999966 0.6633033999999967 2.205703700000008
Cu -0.11614994999999695 2.6646995999999987 -0.8253020999999947
Zr 1.5753516499999982 1.9258994999999928 1.1209030000000055
Zr 1.6511497499999983 -0.5956992999999997 2.5774994000000007
Cu 0.09754944999999893 -0.306301100000006 -0.12010190000000165
