14

Cu 1.0256509999999999 -1.8462028000000004 -1.846300099999997
Cu -0.7190485000000031 -0.6739006000000103 -2.5999012000000015
Zr 1.1797513999999971 1.0206946999999928 -2.8928012999999986
Zr -1.0980501000000018 -2.838100400000002 -0.11499970000000204
Zr -3.0068503 -0.4776039000000054 -0.953199399999999
Cu -1.4535494 2.1106987000000004 -1.403699899999996
Cu 1.7476510999999988 1.1272009999999995 2.3622990000000037
Cu -1.415049500000002 2.106296499999999 0.9210986999999982
Zr 0.7721509999999974 -2.129505200000011 2.3990001999999997
Cu 3.0068503 0.2042962000000017 -0.22270010000000084
Zr 2.6791506 -2.5023003000000017 0.6083012000000032
Zr 1.3407506999999974 2.838100400000002 0.13960069999999902
Cu -0.6884489000000009 0.5885962999999919 2.8928012999999986
Zr 0.13815019999999834 -0.07830429999999922 0.02720069999999808
