13

Zr -1.253549549999999 -0.53095055 -2.5794487000000004
Cu -1.8874511500000004 -2.024850749999999 -0.3127518000000009
Zr 1.2445487499999999 -2.3417491499999983 -1.867851199999997
Cu -2.48534965 0.004549050000001387 -0.22235109999999736
Zr 0.49444964999999996 2.0414485499999984 -1.5314521999999968
Cu -0.03655055000000118 -2.581350350000001 0.4484482000000014
Zr -1.813051250000001 -1.7277507499999984 2.1660499999999985
Zr 2.48534965 0.08305165000000159 -0.11545180000000244
Zr 1.4988498499999992 -1.8064517500000008 2.5760498
Zr -2.1427498499999977 1.5156498500000026 2.0140494999999987
Cu 0.7025489500000006 2.581350350000001 1.0793494999999993
Cu 0.31254954999999995 0.5679493499999992 2.5794487000000004
Cu -0.09115024999999832 -0.16065025000000333 0.1605491999999984
