14

Zr -0.021949700000000405 -2.8687992499999986 -0.5018500999999915
Cu -1.1965484000000046 -0.9700984499999983 -2.5412482999999995
Zr -1.348953200000004 1.8688984499999997 -1.1787528999999992
Cu -2.417350699999993 -0.6000003499999984 -0.8056525999999948
Cu 2.0406493999999995 1.1191997499999964 -1.1105536999999899
Cu -1.900650000000006 1.1609020500000007 1.700550100000008
Cu 1.3037490999999974 -1.2554988499999986 -2.294849399999997
Cu 2.4286499000000035 0.050798449999998496 1.4233513000000002
Cu -2.4286499000000035 -2.5753001500000003 0.9218483000000006
Cu 0.12184920000000687 0.47900205000000184 2.5412482999999995
Cu -0.22924800000000545 -1.7051982499999987 1.9485512000000043
Zr 1.4745483999999962 2.8687992499999986 0.5434456000000054
Zr 2.287147499999996 -2.5438003500000015 1.524250000000002
Cu 0.06304940000000414 -0.096998150000001 -0.10685349999999261
