13

Zr 0.731048599999994 -0.341848299999997 -2.6576499500000006
Cu -1.6315460000000002 -0.13514899999999663 -1.6581506500000005
Cu -0.30464930000000834 2.0176525000000023 -1.2519502499999993
Zr -2.2969513000000035 1.5213528000000007 0.8474492499999995
Zr -0.7055511000000081 -2.7050494999999994 -0.6479501500000007
Cu 1.1862488999999954 -1.432748799999997 1.9418487499999992
Cu 2.0558472999999964 2.1909504000000037 -1.3733501499999994
Cu 2.2969513000000035 0.41815190000000335 0.49964994999999934
Cu 1.5974502999999913 -2.122148499999996 0.0471496500000006
Zr 0.8833541999999994 2.7050494999999994 1.0733499499999999
Cu -1.5287475000000086 -1.0723495999999972 1.52434915
Cu -0.32395170000000917 0.6264515000000035 2.6576499500000006
Cu 0.09864809999999125 -0.0010490999999976935 0.05074975000000048
