17

Zr -2.8449001000000003 0.37764934999999866 -1.6847000499999965
Cu -1.5027026999999968 -1.9279498499999974 -0.46020124999999723
Cu -0.7859019999999965 -3.1383494499999998 1.6855011500000003
Cu -0.8065013999999984 0.3685474500000012 -2.5904998500000005
Zr -2.096200899999996 -0.3757495500000019 1.5411987499999995
Zr 0.9536991999999991 -3.4718494500000006 -0.3212013500000026
Cu 2.603799800000001 -1.9250506499999958 0.868301350000003
Cu 2.8146992000000033 -1.4277515499999964 -1.543800349999998
Cu 0.6777972999999982 -1.6475505499999983 -2.3576011500000007
Cu 0.3318005000000035 2.456449550000002 -1.8135986499999959
Cu -1.3098010999999978 2.020547950000001 -0.16590114999999628
Cu -0.37920190000000176 1.0092487500000047 2.5213012500000005
Cu 1.7185993000000046 0.562948249999998 -3.2901000499999995
Zr 0.5930995999999986 3.4718494500000006 1.2292022500000002
Zr 2.8449001000000003 0.5444469500000011 1.5105018500000043
Zr 1.3724995 -1.3674525499999959 3.2901000499999995
Zr 0.3022975999999993 0.0004482499999980405 0.07329934999999921
