16

Cu 2.2048511000000026 -1.7210006500000006 -1.2116489500000007
Zr 0.2768497000000032 -3.2327003500000018 0.8797512500000018
Cu -1.6186504999999975 1.412799849999999 -3.167646350000002
Cu -3.1443499999999993 -0.5207023500000005 -2.0514469500000025
Zr -0.4950505000000014 -2.6139030499999976 -2.05514715
Zr 0.8837489999999981 -0.07660295000000161 -3.172048550000003
Zr 3.1443499999999993 0.9594993500000015 -1.1603487500000007
Zr 1.5990505000000006 1.9344978499999996 1.1120510499999945
Zr -0.2978496999999969 3.077400349999998 -1.5071468500000016
Cu -1.428350499999997 3.2327003500000018 1.121450450000001
Cu -2.107648799999996 0.5396995500000017 0.7970524499999989
Cu -1.7458515999999982 -1.5780029499999983 -0.04214655000000178
Cu 1.6330509000000042 -0.8400001500000016 0.7612514499999996
Zr 0.390150000000002 -1.1459006500000015 3.172048550000003
Zr -1.0512523999999992 1.5909996500000005 3.0107555500000025
Cu -0.10225099999999898 0.2821998499999978 -0.18624684999999985
