14

Cu -0.6360492000000022 -0.8014488499999999 2.904750815
Cu 0.7253475000000051 -2.062549649999994 1.1159007150000022
Zr 2.8912486999999985 -0.3137512499999957 -0.2152391850000015
Zr -2.395349600000003 1.1909484500000005 1.2716307150000006
Zr 1.6211527999999973 0.4054488500000062 2.2822308149999984
Cu 0.5957469000000017 2.388050050000004 1.114940814999997
Zr -2.3348484999999997 -1.948650349999994 0.5796609149999981
Zr 1.6517543000000003 -2.67644885 -1.217449215000002
Cu -0.8371487000000002 -2.0410499499999943 -1.690952315000004
Zr 0.5128535999999926 -0.025550849999994796 -2.904750815
Zr -1.5963497999999987 2.67644885 -1.0623512150000067
Cu 1.435552499999993 2.2109489500000024 -0.9822502150000076
Zr -2.8912486999999985 -0.16685104999999822 -2.140750914999998
Cu -0.2569523000000018 -0.10345084999999443 0.1063108150000005
