15

Zr -1.3576010499999995 -2.2462998000000027 -2.5449485499999973
Cu 0.5499000500000051 -3.124198899999996 -0.5017471499999964
Cu -2.700595849999999 0.4213943000000029 -0.8133468499999985
Zr -2.9230995500000034 -1.647605900000002 0.5334510500000071
Cu -0.3723944500000016 0.34559629999999686 -2.4501495499999955
Cu 1.4177055499999938 -1.4260024000000016 -2.290348049999995
Cu 2.9230995500000034 -1.3822021999999947 0.178150150000004
Cu 2.1379051499999946 1.2226943999999946 -1.4426498499999987
Zr 0.025699650000007068 3.124198899999996 0.6195526500000064
Zr 0.3398018500000006 -1.891204799999997 1.6795539500000096
Cu -2.4846992500000056 0.46899419999999736 1.7224541500000008
Cu -0.16509625000000483 1.4206008999999966 2.23815535000001
Cu 2.4973030499999993 1.1445006999999947 1.1069526500000073
Cu 2.4781990500000006 -0.6044997999999993 2.5449485499999973
Zr 0.08230204999999557 0.17029569999999694 -0.15674974999999236
