14

Cu 1.1165504999999953 -0.019899450000004038 -3.081050849999997
Zr -2.693050399999997 -0.2231007500000004 -0.02844995000000239
Cu -1.911953000000004 -2.56339835 0.8264503500000018
Zr 2.2545509999999993 -2.081499150000006 -1.2852515499999981
Cu 2.693050399999997 -0.5318012500000009 0.9957504500000027
Cu -1.6373558000000017 -1.049501450000001 -2.500549249999999
Cu -0.7636527999999956 2.3033008499999994 -1.905948549999998
Cu -1.4570502999999988 -0.5487003500000043 2.3933487500000012
Zr 0.6687508000000051 -2.5975017499999993 0.9908485500000026
Cu -1.8710517999999965 2.1108989499999993 1.462551150000003
Cu 0.8889504000000059 -0.07190135000000453 3.081050849999997
Cu 2.0062447000000034 1.873399649999996 1.9160500500000026
Cu 1.4897498999999996 2.5975017499999993 -0.7431487500000031
Zr 0.19955069999999608 0.14180174999999906 -0.31674954999999727
