12

Zr 1.8266010500000007 1.0461005999999955 -2.5912099
Zr -2.5888995500000007 -0.7103005000000024 1.0118099000000003
Cu 1.0464000500000026 -2.8092995000000016 0.37990999999999975
Zr 2.4666004500000014 -0.5610008000000022 0.24611049999999945
Zr -1.8044986499999993 0.968601299999996 -2.14539
Zr -0.47889904999999544 -1.5843010000000035 -1.9598697999999999
Zr 0.88139915 2.5322989999999947 -0.44098039999999994
Zr -2.1233997499999973 2.8092995000000016 0.8121105000000002
Cu 2.5888995500000007 2.223899799999998 1.1709103999999995
Zr 0.6154994500000015 -0.6404990999999995 2.5912099
Cu 0.5963992500000046 1.8130989 2.2541099000000004
Cu -0.2143001499999997 0.350498199999997 -0.12354989999999955
