14

Cu 1.7166254099999918 -0.9273765000000003 -1.457647350000002
Cu 0.9553263099999896 0.46222349999999945 -3.0282497500000005
Cu 1.5176279100000016 2.5003336 -0.21254925000000213
Cu 2.942470290000003 -2.4019604000000006 0.2893504500000006
Cu 2.711540190000001 0.7390534999999994 0.6742496500000001
Cu -1.6759755900000073 -1.5121864000000003 2.279352149999994
Zr -1.57177329000001 -0.4396962000000002 -1.7276478500000039
Zr 0.954723610000002 -1.8888864000000003 2.8083514499999964
Cu -0.11147669000000349 -2.9405334000000005 -0.4155483500000017
Zr -2.942470290000003 0.6479137999999995 1.1079501500000006
Zr 0.6972239099999911 2.9405334 2.1137523499999986
Cu -0.6430699900000008 2.1318933999999996 -0.43784905000000407
Cu 0.0524257099999943 0.5197934999999996 3.0282497500000005
Zr 0.3868296099999924 -0.11093640000000038 0.5659503499999943
