11

Cu -0.662290099999999 0.2859258699999998 -2.3643503500000005
Cu -0.5805897999999994 2.2655998700000026 -1.0238504500000012
Zr -2.6967100999999998 0.1668983699999984 -0.9255504500000011
Zr 0.2590098000000003 -2.2655998699999955 -1.754550850000001
Cu -1.5651897999999997 -2.251798270000002 0.06144994999999831
Zr 2.6967100999999998 0.2120002299999939 -0.9406509500000002
Cu 0.5002103 1.7989997700000018 1.1750497499999977
Cu -1.613789999999999 0.462117769999999 1.7744493499999994
Zr -0.13439029999999885 -1.544301570000009 2.3643503500000005
Zr 2.5582099000000005 -0.5984016700000083 1.9048490499999975
Cu -0.00898979999999927 -0.24619827000000072 -0.030449850000001888
