13

Zr -2.672700899999999 -0.11264990000000452 -1.7036991000000015
Cu -0.06789970000000167 -0.6313495000000025 -2.780599600000002
Cu 2.247400299999999 -1.8771495999999992 -0.8387012000000027
Cu -0.10989950000000093 -2.620950699999998 0.505701099999996
Cu -1.7670994000000029 0.7556477000000008 1.0498982000000012
Zr 1.7814998999999965 0.7375507999999975 -2.179700799999999
Zr -0.5403004000000031 2.620950699999998 -1.1255015999999998
Cu 2.672700899999999 2.4818516000000024 0.02549940000000106
Cu -2.6428012999999986 -1.6623478000000027 0.6515979999999999
Zr 2.439001099999995 -0.39304920000000365 1.2417011000000002
Zr -0.20789910000000233 -0.9280490999999991 2.780599600000002
Cu 0.7712994000000002 1.597551400000004 1.6836987000000008
Cu 0.29450029999999927 0.02375219999999345 -0.1542987999999994
