15

Zr -1.9425487500000003 1.5541514500000027 -1.5770502000000004
Zr -0.6204509499999986 -0.14584925000000126 -3.154549600000001
Zr -2.100149049999999 -3.1878490500000005 0.8969487999999988
Cu 0.6554508500000011 -2.5624485500000027 1.0049504999999979
Zr 0.8794499500000015 -2.471948649999998 -1.754450799999999
Cu -3.0731487500000014 0.002248750000003241 0.3681497999999994
Cu -2.5005511499999997 -1.3564510500000004 -1.5410509000000001
Cu -1.5022487499999997 1.7479495499999977 1.261649199999999
Cu -0.05914874999999853 3.1878490500000005 -0.7343510999999996
Cu 1.7160511499999984 0.9737491499999997 -2.309550200000002
Zr 3.0731487500000014 0.43615145000000055 0.8428488000000005
Cu 1.0515499500000018 2.1655520499999987 1.8125505999999998
Zr -1.5398502500000006 0.14135165000000072 3.154549600000001
Cu 1.4760494499999979 -0.5543499499999989 2.8223505000000007
Zr -0.14304924999999713 -0.2546482499999989 0.37564949999999975
