12

Zr -0.2253534599999938 0.029148999999998537 -2.8055019499999965
Cu 2.348316440000005 -1.4128504000000017 -0.371400849999997
Cu 0.8203261400000059 -2.6602507000000006 1.5403957500000054
Cu 0.03915624000000406 -2.333550400000002 -1.103899049999999
Cu -0.8161937599999973 1.526850699999999 1.078199349999995
Cu -2.348316440000005 -0.34975150000000177 -0.5156994499999961
Zr -1.584514839999997 -1.0718508000000018 1.7920970499999989
Zr 1.7083461400000033 1.6942472999999953 -1.4167995499999968
Zr -1.7274134400000065 2.046248399999998 -1.1912021499999987
Zr 1.4588363400000048 -0.1659517000000026 2.8055019499999965
Cu 1.9851463400000071 2.6602507000000006 1.1023997500000071
Cu 0.23613624000000044 -0.01925180000000104 0.004598550000000756
