15

Cu -2.6350994000000014 -0.4232998499999958 0.39844895000000236
Cu -0.962499600000001 -2.3979015499999967 -0.13374715000000492
Cu 0.544099800000005 -2.0981998499999968 -2.330348950000001
Cu 2.4896984000000018 -0.2420025499999987 -1.7064476500000012
Cu -1.466401999999995 2.6803989500000007 -0.9633445500000022
Zr -1.3326014999999956 0.310697550000004 -1.8581505500000048
Zr -2.0589007999999964 2.0053996500000046 1.8384513499999997
Cu 0.7717991000000026 2.4923000500000008 1.2841529499999922
Zr 1.2606983000000014 1.9467983499999981 -2.08755115000001
Cu -1.4540995999999993 -0.8118992499999997 2.330348950000001
Cu 2.087900099999999 -1.4119014499999984 0.36845015000000103
Cu 0.4335002999999986 -2.6803989500000007 2.0498542499999957
Cu 2.6350994000000014 1.153997450000002 0.6862525499999919
Cu 0.9438000000000031 0.0832004500000032 2.3074531500000006
Cu -0.0764026999999956 -0.25750164999999825 0.39215464999999483
