16

Cu 0.42966079999999973 -1.431846549999996 -2.592250800000002
Cu 0.275160800000001 0.7187500500000041 -3.0674477000000024
Cu -2.1798896 -0.6850509499999973 -2.0481453000000016
Cu -2.8932600000000006 -0.7884521500000048 0.4267540000000025
Cu -1.6827393000000006 2.0350494499999954 -1.863445299999995
Cu 2.3462600999999994 0.7447510499999979 -1.7202491999999978
Zr -0.3789395999999998 -2.64215085 1.5109520000000032
Cu -0.6391391999999998 -2.9331512500000017 -0.8762473999999969
Cu -1.4035397000000005 2.1700515500000037 1.2498511999999948
Zr 1.5113601 2.9331512500000017 -0.3225517000000053
Cu 0.7061605999999996 1.7560502500000084 1.8916511000000042
Cu 1.1226606000000006 -1.139045750000001 2.6783484999999985
Zr 1.9811600999999994 -1.9131469500000051 -0.40614700000000425
Zr 2.8932600000000006 0.2440490500000081 0.9198494000000039
Zr -1.45784 0.2498474499999972 3.0674477000000024
Zr -0.3554392000000002 0.08305354999999537 -0.3930473000000063
