14

Zr -0.2413997999999964 -2.5855989499999996 0.7632026999999972
Zr 2.311799999999998 -2.511898950000001 -1.1204987000000024
Cu 1.1168995000000024 -1.0369996500000003 2.159801599999998
Cu -2.449499099999997 -1.2340001500000017 -0.897499100000001
Cu -0.7525996999999975 2.1029005499999993 1.6466025999999978
Cu -0.8952006999999966 2.0066004499999988 -0.9622002000000016
Cu 1.7008991000000009 1.333201449999999 2.3890990999999993
Zr -1.743402500000002 -0.7324991500000007 2.2917021999999996
Cu -2.7427998000000002 1.2382002500000002 0.11180109999999743
Zr 1.3267001999999977 0.4399004499999979 -2.3890990999999993
Cu -0.20969960000000043 -1.5704984500000005 -2.0836982999999982
Cu 2.7427998000000002 -0.11059855000000063 0.21820080000000175
Cu 1.2726992999999993 2.5855989499999996 0.055400799999997474
Cu 0.19949909999999704 -0.07329845000000113 0.0623016000000014
