15

Zr 1.3644991500000039 -2.8574505000000006 1.0018044500000087
Cu 1.5873995500000042 -1.9804496999999994 -1.754802650000002
Cu -1.0084009499999986 -2.816650400000002 -0.44189835000000244
Cu -2.6904001499999985 0.18415069999999822 -2.0147971499999926
Cu -1.83660025 1.7378501999999987 -0.6350974500000035
Cu -0.8070001500000004 1.351549099999998 -2.605701449999998
Cu -0.7462015499999985 -1.02285 -2.430202449999996
Cu 2.6904001499999985 -0.4762497000000021 -0.576396950000003
Cu 2.257100150000003 1.8954505999999984 0.27160274999999956
Cu 1.757000950000002 0.6194495999999976 -2.1515006500000027
Zr 0.6412973499999985 2.8574505000000006 -1.493297549999994
Zr -1.1675004499999986 -1.488950700000002 2.605701449999998
Zr -2.57030005 1.160350799999998 1.9305000500000062
Cu 0.5136003500000008 0.8105506999999985 2.238201150000009
Zr 0.048798550000004326 -0.10275080000000081 -0.04569624999999178
