16

Zr 0.2022504000000005 -2.8972897500000006 -1.4983482499999994
Cu -0.8275500000000022 1.9417900499999998 -1.4512520500000008
Zr -0.06264980000000264 -0.24640995000000032 -2.89155195
Cu -1.7744494000000017 -1.5980096499999998 -0.5817526500000056
Cu -0.036151000000000266 -2.4280801499999995 1.1145515499999945
Cu 1.7616491999999973 -0.82401035 0.5394477500000008
Cu -2.4544497000000014 0.6977896500000007 -0.6288490500000066
Zr -2.4914503000000003 -0.6590104500000002 2.4722481499999915
Cu 2.3321503999999997 -0.9774098500000008 -1.6959495500000017
Cu -2.073050500000001 1.5990900499999992 1.575847649999993
Cu 0.10265060000000048 -0.5092101499999995 2.89155195
Cu -0.10904980000000108 2.8972897500000006 0.2777519499999883
Zr 2.1365498999999986 1.6547903500000007 -0.4717520499999992
Cu 2.4914503000000003 0.7389902500000005 1.7546501499999962
Zr 0.45884989999999704 2.264489749999999 2.6136512499999967
Cu -0.33545020000000036 0.1280903500000008 0.26955034999999583
