11

Zr -1.007247850000006 -0.39239974999999916 -2.92072985
Zr -0.9058455500000022 -2.35239885 -0.3511197499999996
Zr -1.831649750000004 -0.8628987499999994 2.7147305499999996
Cu -2.312149049999995 0.06390095000000073 0.27608035
Cu 1.4530563500000042 1.0738992499999966 -1.0217702500000003
Zr 1.717849749999992 -1.6997995500000016 0.5863096499999996
Zr -1.2006454500000032 2.35239885 -1.0411698500000002
Cu -1.5147474499999944 2.0868997500000006 1.9215300500000003
Zr 2.312149049999995 1.9038019500000019 1.4964296500000005
Cu 0.6488495500000013 -0.3226995499999994 2.92072985
Cu -0.20384974999999628 0.16400044999999963 0.6240103499999998
