16

Cu -1.778247849999996 0.681606219999999 -1.805952099999999
Cu -0.27045064999999724 2.48450622 -1.2981510000000043
Zr -0.3174514499999965 -1.4090058199999973 -3.0080509000000006
Cu -3.041049949999998 -0.6997337800000025 1.6743488999999983
Zr -1.9176483499999968 1.9422663200000017 1.2691479
Cu 2.1010513500000023 0.10982422000000014 -2.2165508000000003
Zr 2.4008484500000016 -0.0048437800000016296 2.1361484999999973
Cu 1.9536514499999988 1.94584622 0.02535069999999706
Cu 0.9897499500000002 2.4610463200000012 2.139448299999998
Cu -3.097549449999999 -1.4347016200000056 -0.7491512
Cu -1.1005516499999963 -2.1593033199999994 0.9583492000000007
Cu 1.0997505499999995 -2.484506220000007 -0.8144512000000006
Cu 0.6479492499999999 -1.6997010199999991 2.8329486999999958
Zr 3.097549449999999 -1.112001020000001 -0.36025049999999936
Cu -1.0823478500000014 0.2638292199999981 3.0080509000000006
Zr -0.13954924999999818 0.06807221999999769 0.06775090000000006
