12

Cu -1.9471492999999995 -0.4446487500000025 -1.1151523999999995
Cu 2.375749599999999 -0.3944511499999983 -0.5789509000000024
Zr -0.14394959999999912 -2.5391502500000023 -0.9305516000000011
Zr 0.5952510000000046 0.09865184999999954 -2.288549400000001
Zr 2.072252200000001 -2.3134498500000014 1.4607525000000052
Zr -1.0296498000000014 2.1493491500000026 -0.9043521999999982
Zr 0.1426487000000023 2.5391502500000023 2.288549400000001
Cu 2.0605487000000053 1.8435516499999984 0.4573498000000029
Cu -0.1667500000000004 -1.6194496500000035 1.714445099999999
Cu 1.4481488000000056 0.11014934999999682 2.0451487999999998
Zr -2.375749599999999 0.7252502499999984 1.6263484999999989
Cu -0.10415079999999932 0.1414489500000009 0.35724830000000196
