17

Cu -2.5711498499999994 0.6619974200000058 -1.1733999500000003
Cu -0.4977493500000012 1.3652154200000055 -2.3664007500000004
Cu 1.7332496499999994 1.7650114200000004 -0.9810000499999987
Cu 0.47195055000000075 2.8354814200000007 1.2954987500000001
Cu -1.0175494500000024 2.663261420000005 -0.834601450000001
Cu 2.295848949999998 1.1037624200000025 1.5139989500000013
Cu -2.111749650000002 2.0198015200000015 1.449000250000001
Cu -0.8296508500000019 -1.353578320000004 -2.2630015499999985
Cu -2.2540511500000004 -1.8871782200000027 0.11269855000000106
Zr 1.7221489499999993 0.1679212799999945 -3.1647997500000002
Cu 1.2361489499999987 -2.2820756200000076 -1.0213003500000006
Cu 2.5711498499999994 -0.5120790199999945 -0.22810085000000058
Zr 0.4503498500000003 -2.8354814200000007 1.4122990500000014
Zr -2.2540511500000004 -0.5473802200000009 2.389099950000002
Cu -0.23505015000000107 0.9347974200000024 3.1647997500000002
Zr 1.80154995 -0.9014756200000065 2.792300149999999
Zr 0.0936489500000004 -0.0009782200000003627 -0.021201149999999558
