13

Zr -0.4093990500000029 -2.7514000000000003 0.6804504500000021
Zr -3.1304989500000016 1.8893013000000032 -0.3249511500000004
Cu -2.674999250000001 -0.6552009000000005 0.631750150000002
Zr -1.1910992500000024 -0.8077010999999992 -2.1876506499999984
Cu 1.294500249999997 -1.5125998000000003 -1.4107494500000008
Cu 2.356801949999996 1.147800499999999 -0.09894934999999805
Cu 1.1519011499999987 0.8767013999999982 -2.4894504499999996
Zr 3.1304989500000016 -1.4224014000000018 0.5371494500000011
Zr 0.09600074999999997 2.7514000000000003 -0.5744495500000006
Zr -2.076898650000002 0.7445983999999974 2.4894504499999996
Cu 0.8606013499999978 1.678100599999997 1.9802494499999987
Cu 1.0258999499999977 -0.5976982 2.271249749999999
Cu 0.0074996499999979704 -0.02460100000000054 0.09305004999999866
