14

Zr -1.8668985500000002 0.26433510000000027 -2.331350399999998
Cu -0.7147988499999993 -2.339335 -2.2462520999999995
Zr 1.3060999499999983 -0.05016469999999984 -2.6076487999999998
Zr -2.4544001499999997 -2.3281851 -0.3819485
Cu -0.6888990500000016 -1.9628854000000011 1.7866496999999981
Zr -2.8070001499999986 -0.6949448999999994 1.825448999999999
Zr 0.09269994999999831 1.4672351 2.6076487999999998
Cu 2.8070001499999986 -1.1570552999999997 -0.7605495999999974
Cu 0.9167012500000009 -2.2551751000000007 -0.6063517999999988
Zr 1.8830003500000014 -0.9986452999999997 2.055448499999997
Cu 2.197899750000003 1.3872351999999992 0.787450800000002
Cu -1.4505987499999993 1.7280344999999997 0.33925059999999974
Zr 0.68599985 2.339335 -0.8200512000000018
Cu 0.06490035000000027 -0.320965300000001 -0.15135000000000076
