14

Cu -2.4854011499999977 0.30585094999999995 0.5133247500000007
Zr -1.577899949999999 -0.25704954999999785 -2.9574251500000006
Zr 2.2132987500000034 -0.6846504499999995 -1.8251751499999997
Cu 1.4799995499999987 -2.88665005 0.20012475000000052
Cu -1.3326988499999963 1.3134498500000014 -1.2373752499999995
Zr 1.5913009500000008 2.25245095 -1.0809745500000005
Cu -2.010002150000002 -0.36344914999999745 2.599624649999999
Zr -1.0811004499999974 -1.8510494499999979 -0.37737465000000014
Cu 2.0256004500000024 -0.43084904999999907 0.6237249499999997
Zr -0.12190244999999678 1.6911506500000009 2.9574251500000006
Cu 0.6429977500000028 -1.663148849999999 2.2274246499999997
Cu -0.9869003500000026 2.88665005 0.7990246499999998
Zr 2.4854011499999977 2.148851450000002 1.5441246500000005
Cu -0.3829002500000023 0.2899513500000026 0.1878252499999995
