16

Zr -1.195499400000001 -0.747600499999999 -3.339298249999999
Cu -2.7420998 0.24909970000000037 -0.07839965000000149
Cu 0.601798999999998 -2.7961997999999983 -1.9053993500000033
Cu -1.3097992000000023 -1.6238994999999985 -0.7084998500000026
Cu 1.464599599999998 0.025301000000000684 -2.862899750000004
Cu -2.535400400000002 -1.7982005999999995 1.2956009500000008
Cu -0.10729980000000161 -1.736599 1.4720001499999995
Cu -1.7495002999999993 -0.16589929999999775 2.155200950000001
Zr 0.5259990999999982 0.29680060000000275 3.339298249999999
Zr 2.3255004999999986 -1.0317001000000001 -0.08140184999999889
Cu 2.7420998 0.2924004 2.1141014499999997
Cu -1.4316006000000012 2.465999599999998 -0.7064018499999989
Zr -1.029300700000002 2.7961997999999983 1.7722015499999983
Cu 1.542299299999998 2.3006019999999996 1.136901850000001
Cu 1.8103007999999985 1.4333991999999984 -1.1020010499999984
Zr -0.005599999999999383 0.25480079999999994 -0.18019865000000124
