15

Cu -0.9762495999999974 -2.748700099999999 -1.9922504500000038
Zr -3.107250200000001 -1.794899899999999 -0.34324834999999965
Zr 0.2318496000000021 0.3154993000000008 -2.7048511499999996
Cu -2.986450200000002 0.5372000000000003 -1.6547488500000007
Zr -1.3179511999999978 2.9166001999999995 -1.3168506500000028
Cu 2.2292517999999983 0.6522988999999999 -1.8189487500000006
Cu 1.7428512000000023 1.5325003000000006 2.7048511499999996
Cu -0.8039513000000031 -2.9166001999999995 0.8465520499999961
Cu 0.7536505999999985 -2.0593003999999997 2.2582493499999963
Cu 1.5794486999999986 -2.1169004000000005 -0.8920497500000018
Zr -2.0464515999999993 -0.7750006000000003 2.5436497499999966
Cu -1.3465500000000024 2.0479994 1.92165185
Cu 1.3948516000000009 2.4257994000000007 0.22125054999999705
Zr 3.107250200000001 -0.01319980000000065 0.5056515499999996
Zr -0.13805010000000273 -0.2416009999999975 0.09235194999999763
