15

Zr -1.2548484999999978 0.3845997500000031 -2.406849000000001
Cu 1.2636490000000045 -0.571798249999997 -2.993350999999997
Cu 1.059349000000001 -2.5059985499999975 -1.3974495000000005
Cu 2.782550799999999 -0.6256007500000003 -1.3892479000000009
Zr 2.2763519999999993 2.0921001499999967 -0.8229485000000025
Cu -0.16024779999999694 2.77269935 -1.5713501999999977
Zr -2.048549699999999 -2.1183986499999996 -0.7801514000000012
Zr -1.8516502999999993 -0.7911014500000029 2.8526495999999995
Cu -2.782550799999999 0.036298749999996716 0.17224879999999843
Cu 0.0544510000000038 -2.77269935 1.2054519
Cu 2.6946486999999983 0.17059905000000342 1.2342490999999995
Cu 0.6959495000000011 0.21619995000000003 2.993350999999997
Cu -1.103748299999996 1.890798550000003 2.106250799999998
Cu 1.8188514000000033 2.3117008499999976 1.7695502999999988
Zr 0.05395120000000375 -0.2121982499999966 0.09925080000000008
