11

Zr -0.09449580000000068 2.57067842 0.5615986999999993
Zr -2.496500000000001 -0.20288051999999368 1.079197800000001
Zr -1.6833973000000064 -1.0897748200000024 -2.0198012999999992
Zr 2.496500000000001 0.9183199799999926 -0.09240070000000067
Zr 0.9376010999999984 0.48122438000000045 -2.479300499999999
Cu -1.365499500000002 1.739624379999995 -1.6832018999999985
Cu 1.1366977999999968 -2.2390744199999943 -0.8044005999999992
Cu -1.1546002000000009 -2.5706784200000072 0.6843975999999987
Cu -0.27380179999999754 0.8598254799999978 2.479300499999999
Zr 1.3202991000000033 -1.2310788199999934 2.3073986999999985
Cu -0.25009730000000374 0.025024779999995417 0.08999909999999822
