12

Cu -0.6317997500000025 -1.590148899999999 -2.59259985
Zr 0.06279944999999643 2.3744507000000006 -1.1652993500000006
Cu 0.1882991499999953 -2.3744507000000006 -0.8467998500000009
Cu -1.871702250000002 0.9587479000000023 -2.0816001500000008
Zr -2.7128009499999983 -1.1580505999999993 -0.3639001500000001
Cu 2.7128009499999983 0.48075109999999555 0.3390999500000005
Cu -0.35289955000000006 -1.3727492999999988 1.7959003499999993
Zr 1.6989993499999976 -0.21644980000000302 -2.0353993499999996
Zr -0.40989875 1.0991478000000008 2.59259985
Cu 1.9881000499999963 -2.197052000000003 1.1302005500000005
Cu -1.8686008500000035 1.7975501999999999 0.5606003500000005
Cu -0.2752018499999984 -0.18474959999999996 -0.11530015000000038
