13

Zr -0.35151559999999993 -2.659601249999998 -1.319946250000008
Cu -1.6486653000000002 -0.5066013500000004 -2.2138518500000046
Cu 1.4366847999999992 -1.4732990499999978 -2.608947750000006
Cu 0.3521043999999991 -2.39100075 1.0506515500000049
Cu -2.0215853 -1.7078990499999982 0.8309479500000023
Cu -0.5019453 2.659601249999998 1.1016540500000005
Zr -2.6093152 0.7454013499999981 0.11775214999999406
Zr -0.6288055000000004 0.010400749999998737 2.454750049999994
Cu 2.2973147999999997 -0.8439998499999994 -0.11865225000000379
Zr 0.27366459999999915 1.3399982499999972 -1.6744460500000073
Zr 2.6093152 2.1852016499999998 0.8491516500000031
Cu 1.9410143999999994 -0.11630055000000183 2.608947750000006
Cu 0.5310441999999993 -0.14489934999999932 0.32424925000000115
