17

Cu -1.5467510000000004 -0.9790496999999991 -2.093299799999997
Zr -0.6987515000000002 -2.9218501999999997 -0.04550159999999437
Cu 2.0821514000000008 1.3994502999999998 1.526397700000004
Cu 1.0291500000000013 -1.7005500999999992 -1.5848998999999964
Zr 1.1956501999999958 0.705450100000002 -2.926101700000004
Zr -2.205648400000001 1.1084499000000019 -3.1724013999999983
Cu -2.8896504000000007 -0.030448800000000276 -0.5764999000000017
Cu -2.3986492000000013 2.512350100000001 -0.4794006000000053
Cu -0.43375209999999953 2.5343514000000003 -2.1406020999999953
Zr 1.999250400000001 2.9218501999999997 -0.4206999999999965
Cu 2.8896504000000007 0.49985120000000016 -1.0193024000000008
Cu -2.332449000000004 0.5530510000000017 1.8657989999999955
Zr 0.32715029999999956 1.139350900000002 3.1724013999999983
Zr 2.199251199999999 -1.0615499999999987 1.1949005000000028
Cu -0.7876492000000042 -1.3638496 1.8689040999999946
Cu -0.2254505000000009 2.8059502 0.9477006000000046
Zr -0.14245030000000014 0.451950100000003 -0.22949979999999925
