11

Cu -1.8847008999999986 1.4962978500000013 0.62639515
Zr -2.9994011 0.03569984999999676 -2.34990485
Cu -2.3333015999999986 -1.170900249999999 -0.3178950500000002
Cu -1.019599900000003 2.340398750000002 -1.54523505
Zr 1.7937010999999998 1.3775997499999981 -1.10133495
Zr 0.06909929999999775 -2.340398750000002 -0.11965505000000043
Zr 2.9994011 -0.7721004499999999 1.23826495
Cu 0.5855978999999962 1.4792995499999968 1.1354249499999995
Zr -1.265098700000003 -0.4483013499999977 2.62206495
Cu 0.33589930000000123 -0.6409015499999988 -2.62206495
Cu -0.15819940000000088 0.30750085000000027 -0.3012748500000004
