14

Zr 1.97640964 -1.865598649999999 -1.8363017999999975
Cu 0.5637600400000053 1.0970020499999968 -2.4171008999999977
Cu 2.6448700400000007 0.6188984499999997 -0.6121998000000026
Cu -1.5437729400000109 -0.35759924999999626 -2.1392994000000023
Zr 0.9828198400000048 -2.865800850000003 1.1947002000000033
Cu -1.2924759400000028 -1.334798850000002 2.1446018000000002
Cu 2.624929640000005 -0.9709987499999961 1.1502018000000014
Cu 0.48218984000000376 2.865800850000003 0.5351008999999998
Cu -0.9845764399999979 -2.5235995499999966 -0.7846012000000009
Cu 1.2793100400000057 0.09729965000000007 2.289899799999997
Cu -2.6448700400000007 -0.4696979500000005 0.340101200000003
Zr -1.8055756400000007 1.9954014499999992 -0.8870983000000017
Zr -1.0427735399999989 1.2945995499999974 2.4171008999999977
Zr 0.3871200399999992 -0.0898990500000032 -0.12100030000000217
