15

Cu -1.0473518000000084 2.3511505500000034 -2.0378513
Cu -1.0004539000000037 -0.7486495499999997 -2.625749599999999
Cu 1.6323508999999987 0.7178497500000027 -2.1767483
Cu 0.08504869999999443 2.5079498499999993 -0.1286486999999994
Cu 1.1640511000000018 -2.4139499499999992 0.9495487000000011
Cu -2.7593498000000025 1.0996513499999985 -0.4072513999999998
Cu -0.045551300000006734 -2.5079498499999993 -1.0245494999999991
Cu 1.4493521999999999 2.0494499499999996 1.8834514999999996
Zr -1.8073540000000108 -1.441049549999999 0.6588496999999975
Cu 2.7593498000000025 1.4629478500000026 -0.6874485000000021
Zr 2.6649512999999914 -1.4461498499999976 -0.9198512999999977
Cu 2.3030509999999893 -0.38565064999999876 1.5409489000000036
Zr -1.450550100000008 1.9083480500000043 1.9493504000000001
Cu 0.1538505999999913 -0.6019496499999981 2.625749599999999
Cu 0.2041511999999912 0.26694875000000096 0.17495149999999882
