11

Cu -1.207597799999995 2.2657012499999993 -1.2656498999999997
Cu -2.3906002000000015 -0.8944015499999978 0.5876482999999979
Cu -2.224599900000001 1.694198550000003 1.1819514999999967
Zr -1.4770983999999956 -0.6160011500000024 -2.369451599999998
Cu 1.231698900000005 -0.5887985499999999 -1.5150509999999997
Zr -0.3095989999999986 -2.588100449999999 0.0711498000000006
Zr 2.3906002000000015 0.10189814999999669 1.0975512999999992
Cu -0.3600980000000007 -0.8856010499999982 2.369451599999998
Zr 1.3331012000000015 1.943000750000003 -1.844350900000002
Zr 0.28260230000000064 2.588100449999999 1.211351399999998
Cu -0.03019909999999726 0.20940015000000045 -0.05365189999999842
