10

Zr 2.0613360400000005 -2.0646018999999924 -1.8893489499999987
Cu -0.7055463399999979 -2.512302400000003 -1.5274524499999984
Cu -0.6069441400000102 0.3987999000000073 1.8893489499999987
Cu 1.1472263400000031 0.9241981999999993 -1.556451850000002
Zr 0.4359361400000026 2.512302400000003 0.5892505499999956
Cu -1.4413480400000083 0.5890007000000068 -1.3584499500000007
Zr 0.9559559400000026 -2.4054985 1.7513484500000018
Zr -2.449046140000007 -1.3586005999999955 0.4369487499999991
Zr 2.44904614 0.1186027999999979 1.5407504499999973
Cu 0.1514961400000061 -0.8709983999999977 -0.07394984999999821
