13

Zr -2.2965399999999994 -1.8108491000000004 0.5397491499999987
Cu 1.201950300000001 -2.4630498999999997 0.14825445000000315
Cu 2.1194499 -0.6549500999999989 -1.2288512499999982
Zr -1.6316601999999998 -0.8114499999999989 -2.256050050000006
Cu -2.4196503 1.2849513000000012 -0.09914395000000553
Cu -0.6024796999999991 2.4630498999999997 -0.8017501499999966
Cu 1.1847497999999996 1.089350699999999 -2.461151149999999
Cu 0.5653498000000008 -2.2329491999999984 -2.0428466500000084
Zr 1.8683503000000004 2.0042506000000007 -0.08625024999999908
Zr 0.07004950000000054 -2.343249300000002 2.461151149999999
Cu 2.4196503 -0.7041501999999991 1.3477555499999951
Zr -0.27673979999999876 0.5777501999999988 2.342155549999994
Cu -0.0928798999999989 -0.02474879999999935 -0.19345084999999784
