15

Cu -1.8217009999999974 0.6363802000000005 -2.3628005499999993
Zr -1.8097992000000005 -2.5152502000000005 -1.4903984499999972
Zr 1.087699900000004 -0.521989800000001 -2.827899949999999
Cu 0.43880080000000277 2.0799799000000005 -2.1169014499999967
Cu -2.4491996 -1.7588900999999995 1.5812988499999996
Cu 1.6364975999999984 -2.6609802 1.545700049999997
Zr -0.0009993999999977632 -1.4271002000000008 2.827899949999999
Cu 1.0349007000000015 -2.4871702000000004 -1.0875015500000025
Cu -2.8656006000000005 0.33027939999999933 -0.13150024999999843
Cu -1.473800599999997 0.7992801999999992 2.3377990499999974
Zr -1.043399799999996 2.6609802 0.24409865000000153
Cu 0.7887993000000009 1.5225801999999993 2.360198950000001
Cu 1.8651009000000016 1.331379899999999 -0.5066986500000006
Cu 2.8656006000000005 -0.584580400000001 0.9533004499999969
Zr -0.03620149999999711 -0.3909206000000003 -0.03979874999999922
