15

Zr 2.2331505000000007 0.934551299999999 -1.6208019
Cu -2.8923492999999993 -1.2424507000000027 -0.558000499999995
Cu -1.1074504999999988 -1.2461510000000011 -2.6201991999999983
Cu -0.531650599999999 -2.4929504000000016 -0.8724002999999989
Zr 1.7115516 -1.9536513000000006 -2.2611026999999986
Zr 1.7040520000000043 -2.204750100000002 1.1757984000000015
Cu 2.9775504999999995 -0.13364790000000326 0.6685009000000015
Cu -2.9775504999999995 1.2606506000000017 -1.9638996000000013
Cu -2.9683494999999986 1.0052490999999968 0.5552998000000038
Cu -1.3714504000000005 2.4929504000000016 -0.383302699999998
Cu -0.5422496999999993 1.4712485999999991 -2.227201399999995
Cu 1.4195518000000007 1.7418517999999956 0.7740001999999997
Zr -1.0631503999999978 0.9668503000000008 2.3963986000000013
Cu -0.30644979999999933 -1.6229515000000028 2.6201991999999983
Zr -0.49104879999999795 0.0005492999999994197 -0.06300149999999505
