12

Cu 1.6605284400000073 -1.327149499999999 -1.4297494000000004
Zr 2.6209285400000084 0.8021496999999993 1.4674502
Zr -0.5057246399999968 -0.5002508999999993 -2.8020505999999994
Cu -0.7286250399999972 -2.393549900000002 -0.6747503000000012
Zr 1.806973659999997 1.5448484999999987 -1.967949899999999
Zr -2.6209285400000084 1.1101483999999981 0.5341502000000009
Cu 0.37767526000000373 2.393549900000002 1.138550799999999
Cu -0.8023249400000054 2.1128491999999977 -0.9737500999999984
Cu -1.8669231399999973 -2.174349900000001 1.6041498
Zr 1.3829777600000028 -2.2086497000000005 1.5172492000000002
Zr -0.7175243399999971 -0.09695149999999764 2.8020505999999994
Cu -0.10172534000000155 -0.11345010000000322 0.06005000000000216
