14

Cu -2.8140487999999984 -0.21740344999999905 -1.1081019849999976
Cu -0.6436462000000027 -1.9750023499999898 1.711188115000006
Cu -1.464950599999998 -2.1653022500000034 -0.7831919849999949
Zr 2.8140487999999984 -0.8308983499999911 1.0332380150000091
Cu -2.2562484000000005 -0.27840044999999947 1.5429780150000028
Cu -1.9724502999999949 2.0965004500000006 -0.14061188499999133
Zr -0.2219465999999919 2.1653022500000034 2.0718982150000045
Cu 0.6866531999999985 0.02550124999999781 3.0787880150000078
Zr 1.8854523000000007 2.1108970499999984 -0.16062188499999763
Cu 2.1210480000000054 1.12559885000001 -2.6000817150000017
Zr 1.447448699999999 -1.8773003499999916 -2.0807869150000045
Cu -1.134750399999998 -1.0609016499999981 -3.0787880150000007
Zr -0.7511520000000012 1.9475974499999964 -2.533988315000002
Zr -0.27995300000000256 0.1638984499999978 -0.2720119849999918
