16

Cu 0.20114995000000135 -0.3328056499999974 -2.9422492999999967
Zr -2.891949650000001 0.4959983499999936 -1.9587479000000023
Zr 2.7255487500000015 -1.3138007499999986 -1.6567497000000024
Cu 0.7192487499999984 1.8746986499999991 -1.7124480999999996
Cu 1.9050493499999988 -2.912799849999999 0.26485059999999905
Cu -0.15075015000000036 -2.4275016499999964 -1.2038497999999969
Cu -0.7170514499999996 -2.723003349999999 0.8542518999999977
Cu -2.2465505499999985 -1.680103349999996 -0.4232483000000009
Cu -2.78235145 2.005199449999992 0.27885060000000195
Cu -0.39175115000000105 -1.591800550000002 2.9422492999999967
Zr 2.3462496500000007 -0.9920997499999942 2.227851900000001
Cu 0.8193502499999994 1.0572014499999938 2.2035485
Zr 0.15374854999999954 2.912799849999999 0.327751199999998
Zr 2.891949650000001 1.558795950000004 0.061851499999999504
Zr -1.6441506500000003 1.320797049999996 2.3710518
Zr -0.00355054999999993 0.07909775000000252 -0.18085089999999937
