11

Zr -0.875099150000004 -1.595600150000001 -2.4172000999999987
Zr 0.12660215000000363 -2.3502998500000007 2.2271976
Cu -2.036300649999994 -0.7555999499999988 1.1678980999999986
Zr 1.7528991499999975 -1.8976001500000006 -0.6634999000000015
Cu 1.087898250000002 0.5328007500000016 -2.159601200000001
Zr -0.999900849999996 2.2726001500000006 -0.5674000000000028
Cu 0.7244033499999958 1.8404998499999987 1.340299599999998
Cu 1.9180984499999951 2.3502998500000007 -1.0423031000000016
Zr -1.1022033500000035 1.0953998500000015 2.4172000999999987
Zr 2.036300649999994 0.06270025000000068 2.323499700000003
Cu 0.34490204999999463 -0.044099749999999105 0.21329689999999957
