15

Zr 1.2105483999999969 -1.8930006499999994 -1.7758989500000002
Zr 0.6744499999999967 0.8515996500000025 -2.8926000500000004
Cu -2.9585495 -1.523600649999997 0.7776994499999983
Zr 1.7147483999999942 -2.61430075 0.8699006499999999
Cu -0.6768493000000042 -1.9557009499999989 0.4737997499999995
Zr -2.395751800000003 0.9688996500000027 0.6525010499999997
Cu -1.2583503 -0.47099974999999894 -1.6185006500000032
Cu -0.9988516999999995 2.61430075 -0.9017992500000016
Zr 1.7992477999999998 2.1029996500000028 -0.6472998500000013
Cu 1.3544502999999999 1.19519895 2.215100249999997
Cu -0.5705490000000033 2.363400450000002 1.7188996499999991
Cu 2.9585495 -0.4597998499999978 -0.14339924999999987
Cu -1.7639503000000012 0.03460025000000222 2.8926000500000004
Zr 0.21675109999999975 -1.1876001499999997 2.6979016500000004
Cu 0.27655030000000025 0.18039985000000236 0.27949994999999994
