13

Cu -0.04045105000000149 -1.6063995499999955 -2.5448512999999977
Zr -1.8461494499999986 0.3315010500000035 -2.4024487000000008
Cu 1.7675514499999991 1.1183014500000006 -2.273351699999999
Zr 2.218448649999999 -2.790401450000001 1.4453487000000038
Zr -0.9090499499999964 -1.3627013499999983 2.5448512999999977
Zr 2.8862495500000023 -0.9839019499999999 -1.045148900000001
Cu -0.27384955000000133 -2.3007011499999983 0.10455129999999713
Zr -2.8862495500000023 -1.0066985499999994 0.04004859999999866
Cu 1.5538520500000033 2.790401450000001 -0.03634840000000139
Zr -1.1034507500000004 2.328300450000004 0.23015019999999708
Cu -2.606449050000002 0.8335991500000013 2.1446514000000008
Zr 1.4086495499999998 0.7611999500000017 2.0886515999999986
Cu 0.07495114999999686 -0.1168021500000016 0.13255120000000176
