15

Zr -0.6119299499999995 -2.6278992499999987 -2.1753502000000005
Cu 0.18756955000000008 -2.262397750000005 1.6520499999999991
Cu -2.6807699499999993 0.10440065000000232 -0.6199492999999983
Cu -2.22212035 -2.1595993499999935 0.15375140000000087
Cu 1.2870702500000002 -2.8143005499999987 -0.14085000000000392
Zr -1.4575005499999998 0.48259735000000603 -2.8750496000000005
Cu 2.4844693500000004 -0.050003050000000826 0.4814491000000025
Cu 0.8770694499999996 1.0862960500000014 -2.5184479000000017
Zr 2.6807699499999993 -0.6843033499999933 -2.0882492000000035
Cu -0.40353004999999964 2.8143005499999987 -1.1688499000000014
Zr -1.808589950000001 2.181098849999998 0.9296493999999988
Cu 1.1065701500000005 1.78189845 0.8684502000000016
Cu -2.0129604500000005 -0.3928985499999982 1.8822518000000024
Zr 0.17926975000000045 0.3787993499999942 2.8750496000000005
Zr -0.07303054999999947 -0.5017013500000047 -0.2795486000000018
