16

Cu 0.5010014500000004 -0.8867015999999985 -2.993400600000001
Cu 1.9312992499999986 -2.3183994000000006 -1.9710997999999975
Cu -2.7698993499999993 -2.459798799999998 -0.29209900000000033
Zr -0.8019008499999991 -2.9134998000000003 -1.7008019000000019
Cu -1.0521983500000012 -2.5799999000000007 1.5971984999999975
Cu -2.7422008499999997 -0.6577014999999982 -1.8045005000000032
Cu -2.7054996499999966 -0.7707003999999991 1.7226981999999964
Cu -2.185499150000002 1.2624989000000006 -0.4288025000000033
Cu 1.4960003499999992 -2.297399500000001 0.8667984000000004
Cu -0.45620144999999823 1.2645015999999991 -2.555400900000002
Zr -0.9250011499999964 1.7895985000000003 2.136699700000001
Cu 0.4580021500000022 -0.983999199999996 2.993400600000001
Cu 1.6191005500000024 1.0332012000000041 1.826500000000003
Zr 0.6056995500000006 2.9134998000000003 -0.7206992999999997
Zr 2.7698993499999993 0.4039020999999998 -0.6971016000000034
Zr -0.04220005000000171 -0.29810139999999663 0.3353004000000013
