17

Zr 0.5850495500000008 -1.393449750000002 -2.7608985500000003
Cu -1.6873502500000015 1.7570495499999979 -1.7796973499999993
Zr -2.4583502500000023 -0.9768504500000006 -1.78799815
Cu 0.2025499499999981 1.515649849999999 -2.9580993499999977
Cu -0.6949491499999993 -2.4481496500000013 -0.8222007500000004
Zr 1.6868486500000017 -2.7381496500000004 0.13010024999999814
Zr -3.0081491500000013 -0.6857509499999992 1.156700149999999
Cu -2.6127499500000013 1.831150049999998 0.38240044999999867
Cu 2.8818521500000003 -0.8011493499999993 -1.5063972499999991
Cu -0.98534875 -2.1272497500000007 1.9919013499999991
Zr 2.3624506499999995 1.8943501499999975 -0.582897250000002
Cu 3.0081491500000013 -0.5464496499999996 1.548702249999998
Cu 0.06395054999999772 2.7381496500000004 -0.11779785000000231
Cu 0.8759507500000012 -0.49704935000000106 2.9580993499999977
Zr 1.271950750000002 2.1514491499999977 2.532501250000003
Cu -1.16924955 0.7250499499999989 2.8540000500000033
Zr 0.08335014999999757 0.21655085000000085 0.15620045000000005
