13

Cu -0.9891509999999926 -2.3113022 -0.8159999500000019
Cu -2.879852299999996 -0.755897499999989 -0.0304012500000006
Zr -1.4302521000000041 1.026496899999998 -2.414899850000001
Cu 2.4409485000000046 -1.48829649999999 0.49469954999999644
Cu 0.8800506999999982 1.8256989000000061 -0.5607013499999987
Zr 0.9669494999999984 -0.6108016999999961 -2.129098950000003
Cu 2.879852299999996 1.2692032000000069 0.47860144999999576
Cu -2.1357497999999993 -0.7567976999999928 2.414899850000001
Zr -2.057548499999996 2.3113022 0.017999649999996592
Zr 1.237854100000007 0.6146013000000039 2.1118984500000018
Cu 0.28134930000000224 -1.8068999999999988 1.6508998499999983
Cu -0.9188460999999961 1.606903100000011 2.1004009499999974
Cu -0.39514919999999165 0.42430120000000215 0.09110064999999778
