15

Zr -2.1753997000000034 -0.22065344999999326 -2.4035492000000005
Cu -1.5455969999999972 -2.3041496499999923 -0.5463486000000017
Cu 1.0920982999999929 -2.7579536499999975 2.1363526000000093
Zr 1.0105018999999977 -3.1483497500000013 -0.9279480000000007
Zr -3.1637001000000033 -0.2523536499999963 0.20545210000000225
Cu 0.8396034999999991 -0.9460487499999957 -2.4911498999999964
Cu 0.6317024999999923 1.3616524500000011 -1.9017485999999906
Cu -1.109401700000003 -1.724948849999997 2.4911498999999964
Cu -1.8600960000000093 1.6675529500000081 0.00015260000000694163
Zr 1.0373039000000013 3.1483497500000013 -0.08004760000000033
Cu -0.8389015000000022 1.150150349999997 2.18254850000001
Zr 1.9902000999999991 0.06805045000000831 1.7595519999999993
Cu 3.1637001000000033 0.99335095 -0.7075499000000036
Cu 3.016498700000003 -1.135951949999999 -1.4900512999999904
Cu 0.2667046000000006 -0.3579520500000015 0.022049000000009755
