16

Cu -2.6107493 -0.31085015000000027 -2.080751400000004
Zr -0.056050300000000775 0.3197497499999997 -3.2418498999999983
Cu -0.43355090000000196 -1.7110500499999972 -1.423551400000001
Cu -1.3140497 -1.4666500499999984 1.6972485000000006
Zr 0.5131502000000001 -3.1326503499999987 0.5540486000000016
Cu -1.9763497999999995 2.087648350000002 -2.0916500000000013
Cu 0.5205506999999994 2.5081500500000047 -1.4704532000000015
Zr -2.687150000000001 2.540246950000004 1.0588474999999988
Zr 2.3884495999999995 -1.506250449999996 -1.2938517999999988
Zr 2.9890509000000005 1.1872501500000041 -0.12294959999999833
Cu 1.2596501999999976 -1.0360508499999952 1.8612498999999971
Cu -2.9890509000000005 -0.17915155000000027 0.2796498000000014
Cu 1.5020493999999989 1.7608470500000024 2.0848483999999985
Cu -0.3162508000000006 3.1326503499999987 1.0798473999999985
Zr -0.8434496000000014 0.9986476500000023 3.2418498999999983
Zr -0.223649 0.21274755000000312 0.06714819999999833
