15

Zr -2.136751149999995 1.596349700000001 -1.9485512000000043
Zr -1.5235500499999972 -1.7451496000000013 -2.586551699999994
Cu -0.10384944999999846 0.3272495000000042 -3.0039482000000035
Zr 0.8056507500000052 -2.853250499999998 -0.9715461999999988
Cu -1.8695507499999948 -2.758150099999998 0.6661491000000055
Cu -1.962450049999994 -1.615751299999996 2.7587547000000043
Cu -2.88215065 -0.19985009999999548 -0.257846899999997
Cu 2.88215065 -0.3922519999999956 -0.5306510999999929
Zr 2.855249350000001 0.7315502000000045 1.9753531999999936
Cu 0.34914975000000226 1.9394512000000041 -0.9021492999999978
Zr -2.3785495499999953 2.1375485000000047 1.042751299999999
Cu 0.5708484500000068 2.853250499999998 1.2915534999999991
Zr 2.063650150000001 -2.052850699999997 1.9221534000000062
Zr -0.2292498499999951 0.5861492000000048 3.0039482000000035
Zr 0.042848550000002206 -0.3197498000000003 0.26594920000000144
