15

Cu 1.5738635599999995 0.8260497999999998 -2.3704490500000013
Cu -1.1183362399999979 -0.6580504000000005 -2.553249349999998
Zr 2.873936140000005 -1.5280533000000034 -1.0546493500000018
Cu 0.562465159999995 -2.1208495999999926 -1.7008514499999983
Cu -1.7253384400000087 -2.6300507000000053 -0.39905165000000054
Zr 0.4333605599999899 -2.2513503999999998 1.1991500500000036
Zr 2.8097057400000054 1.2679443999999975 0.18175125000000136
Cu -1.8630337399999988 -1.2199553999999964 1.9324493500000024
Zr -2.873936140000005 -0.17335510000000198 -0.65845105
Cu 0.1611590599999957 0.4425507000000053 2.553249349999998
Zr 0.8475603599999957 2.6300507000000053 0.5477485499999979
Cu 2.160265940000002 -0.6886519999999976 1.9985504499999998
Zr -1.1730388399999967 2.250450199999996 -1.6174506499999985
Cu -1.7312359399999977 1.071144100000005 1.4063491500000005
Cu 0.21926455999999206 0.17864990000000347 0.03924945000000335
