11

Zr -2.211351350000001 -0.913497900000003 0.057766565000001435
Zr 0.6092510499999975 -2.9094009000000014 0.4177465650000016
Cu -1.8698481500000028 0.41699979999999925 2.3893666650000043
Cu -1.874551750000002 2.4729004000000003 0.07181656499999889
Zr 0.06664845000000241 2.3473015000000004 2.467856365000003
Zr 0.4962482500000007 -0.851398500000002 2.4666266649999997
Zr 0.3654499499999986 2.9094009000000014 -0.7901534350000006
Zr 2.3488483499999973 0.6109009999999984 0.7768166649999984
Cu -2.3488483499999973 0.7566986 -2.467856365000003
Cu 0.6700496500000028 -0.7350998000000004 -1.2816533649999968
Cu -0.42394825000000225 0.4343986999999956 0.6372966650000009
