12

Cu 1.61525155 0.5939979999999991 2.5518394650000076
Zr 2.1371517499999975 2.4464989000000017 0.5425590350000107
Cu -2.42284965 0.6227988999999994 0.08685533500000986
Zr -1.2191486499999975 0.9430009000000013 2.515249465000011
Zr -1.591848350000003 -1.705699899999999 -1.6794410649999918
Cu 0.9529514499999969 -2.4464989000000017 0.020059935000006135
Cu -0.9379481500000004 -1.5415993000000014 1.1625541350000077
Zr 1.7311496500000025 -0.5963020000000014 -1.9605461649999967
Cu -0.7956485499999992 0.8554992999999982 -2.5518394650000005
Cu -0.7364482499999987 2.2991981000000052 -0.5945411649999954
Cu 2.42284965 -0.3008994999999999 0.5937600350000025
Cu -0.043848049999997585 -0.001800500000001648 0.3669532350000111
