13

Cu -1.4646492000000038 0.3257503999999969 -2.3427496000000003
Zr 1.3637503999999936 -1.8019505000000038 -2.1041499000000004
Cu 2.456447599999997 0.9443531000000007 -1.3755503000000013
Cu -1.5021477000000019 -2.1332492000000016 -1.5584497000000015
Zr 0.22024909999999664 2.4394512000000006 -2.311650300000001
Zr -0.22874829999999946 -2.0798473000000044 1.9457501999999982
Zr -2.525951400000004 -0.44854930000000337 0.4164494999999979
Cu 1.8720511999999943 -2.7917500000000004 0.4480504999999999
Zr 2.525951400000004 -0.20424840000000444 0.9618500999999986
Cu -1.8514519000000078 1.9907512999999994 -0.5723504999999998
Zr 0.956050900000001 2.7917500000000004 0.5772503999999996
Cu 0.29214850000000325 0.9809512999999939 2.3427496000000003
Cu 0.12164689999999467 0.23075289999999882 -0.19595049999999947
