12

Zr -2.62955 0.7638511500000007 -0.72033025
Zr 1.8789491999999992 -1.4863471500000003 -2.15946005
Cu -0.13265129999999736 0.6529503499999976 -2.42560005
Zr -1.4090508999999987 -2.3222503500000045 -1.4984402499999998
Cu -2.533450099999998 -2.1020507500000036 0.8583899499999994
Cu 0.7252492999999998 1.0698509499999957 2.0668001500000006
Zr -1.5462502999999987 0.5249519499999948 2.42560005
Cu -0.8334512999999983 2.3390502499999997 -0.3447799499999995
Zr 0.824448600000002 -2.3390502499999997 1.3253002499999997
Zr 1.7106484999999996 1.599750549999996 -0.39748004999999953
Cu 2.62955 -0.7137489500000029 0.8162003500000008
Cu -0.20295049999999826 -0.25404735000000045 0.1529903499999996
