12

Zr -2.3333998000000005 -0.5758552500000036 -1.8303012999999986
Zr 0.031498900000000774 -2.8098487500000005 -1.391298299999999
Cu 2.0178995000000004 -0.6546516500000052 -2.4201984000000003
Cu 0.3334989000000004 0.6081504499999966 -2.8448010000000004
Cu -0.5063008999999976 -1.3922537499999947 0.8397998999999992
Cu 2.064499800000002 -2.5005530500000077 0.39760020000000296
Zr 0.6614999000000008 0.20804984999999476 2.8448010000000004
Zr -2.1724005 1.2415504500000054 1.202100699999999
Cu -0.3475008000000006 2.369945549999997 -0.5113009999999996
Cu 1.1918001 2.8098487500000005 1.334001500000003
Zr 2.3333998000000005 1.4153480500000057 -0.8476010000000009
Cu -0.1908998999999998 0.22144704999999476 -0.3177012999999995
