16

Cu -2.163648600000002 -1.2779006499999994 -1.4915504999999953
Cu -0.9125500000000031 -0.43819994999999956 -3.218952199999997
Cu -0.13644980000000118 -2.845600149999999 -0.5194511000000048
Zr 1.862348500000003 -0.8807001499999991 -1.1429481999999993
Cu -1.987649900000001 1.45249935 -0.9527473999999998
Zr 0.932149900000006 1.6868000500000022 -2.5461462999999966
Cu -3.2224483999999975 1.0865001500000027 0.9998512000000019
Cu -1.7825489000000019 0.6203994500000007 2.8425484000000054
Zr -2.844247799999998 -1.6281004499999998 1.5102501000000004
Cu 1.7856501999999992 -2.234000149999998 1.1472510999999983
Cu -0.19354820000000217 -1.8331003499999987 2.6234473999999963
Cu 3.2224483999999975 0.5228996500000012 1.5151480999999976
Zr 0.9543514000000002 1.4818992500000014 3.218952199999997
Zr -0.7643490000000028 2.845600149999999 1.1083487999999946
Cu 1.4338511999999994 2.1002998500000025 0.036350199999994004
Zr -0.10494810000000143 -0.04530044999999916 0.33645250000000004
