12

Zr -0.834199899999998 -0.21319964999999996 2.2514958149999984
Zr -2.4524994000000007 0.14650054999999895 -0.15087418499999927
Zr 1.3880005000000004 -2.9216995499999996 0.8779759150000004
Cu -0.8316002000000005 -2.2426996500000005 -0.11167408499999709
Cu -0.6348991999999996 2.3386001499999995 1.094895815000001
Zr 2.4524994000000007 -1.0479994500000007 -1.409114185
Cu 1.9228001 -0.6361998500000006 2.1736860150000012
Zr 2.4215012000000016 2.0777005499999994 0.7419958150000028
Zr -0.7975998000000004 2.9216995499999996 -1.5527141849999992
Cu 0.019599899999999337 -0.9917993500000009 -2.2514958150000055
Cu 1.4498996999999996 1.0994005500000004 -1.7376942149999977
Cu 0.4400997000000011 0.25979994999999967 -0.004053984999998761
