14

Cu -2.218801550000002 0.2329005999999989 -1.0634498000000008
Zr -1.650499350000004 -1.6973991000000002 -2.325550100000001
Cu 0.27039905000000175 0.33880039999999845 -2.1972503000000003
Cu 0.974100049999997 -2.0886993 -1.8513488999999979
Zr -0.24670224999999846 2.826000200000001 -0.4488486999999992
Cu 1.7139987500000018 0.9864997999999989 -0.11304849999999789
Cu 2.518300949999997 -0.4419993999999985 -1.7829514000000017
Zr -1.956899650000004 0.21630099999999963 1.6710509999999985
Cu -2.5212993499999996 -2.0261002 0.8795509999999993
Cu -0.3534984500000036 -2.826000200000001 0.6477508999999984
Cu 0.0115985499999951 -1.3432997999999987 2.325550100000001
Zr 2.5212993499999996 -1.3640995 1.174751299999997
Cu 0.5096988499999995 1.4568996999999992 1.9820519000000019
Cu 0.2026004499999985 -0.4415989000000007 -0.07994839999999925
