13

Zr 0.04150390000000215 1.23916565 -2.77392505
Zr -0.867301999999988 -1.5213146499999999 -1.2137749499999995
Cu 0.6398009999999985 -2.83290555 0.6258747500000004
Cu 0.4325027000000077 2.3310754499999997 2.40262535
Zr 2.368103000000012 -0.9085445499999998 -2.19544535
Cu 2.9215012000000016 -0.9433844499999999 0.8476650500000007
Zr -2.9215012000000016 1.1591355499999998 -0.5317647499999998
Cu -1.8058014 0.06605555000000018 1.8782246500000008
Cu -0.43019869999999827 2.83290555 -0.1784151500000002
Cu 2.2774048000000064 2.1319854499999997 -0.8059051500000001
Zr 0.3038025000000104 -1.14082455 2.77392505
Cu 2.8218002000000055 0.8896052500000002 2.3188249500000007
Zr 0.5725021000000012 0.4623453500000001 0.1002351500000005
