13

Zr 0.18434994999999965 -2.5111498999999995 -1.6672496499999987
Cu 1.33615015 -1.3184503999999997 1.0480479500000008
Cu 2.4378500499999998 -1.2544503000000002 -1.6447506500000024
Cu -0.39704994999999776 -0.3352493999999986 -2.6307506499999995
Cu -0.6991510499999993 2.5111498999999995 -1.5572490499999994
Cu -2.347251049999999 -0.7200494000000006 1.2042483499999967
Cu -0.8168516499999985 -2.2697500999999995 1.7797488500000007
Cu -2.4378500499999998 -1.0946496999999997 -1.252351749999999
Cu -0.2843504499999998 0.014350499999999045 2.6307506499999995
Cu 1.2734498500000004 0.5385489999999997 -0.721551950000002
Cu -2.25835135 1.1479508000000003 -0.528848650000004
Zr -0.22485074999999988 2.4181494999999984 0.9224490500000009
Cu -0.48905094999999754 -0.3158497000000011 -0.15355115000000197
