15

Zr -0.010299650000000327 0.1724996999999977 -3.0509000000000004
Cu -1.0758018500000048 -1.739199600000001 -1.8447995000000006
Zr -2.70719905 0.446398799999999 -0.6353002000000014
Cu -0.12960054999999926 -0.9140996999999995 2.8687996999999985
Zr -1.3481025500000001 -2.2638006000000015 0.7214007999999996
Cu 1.8595008499999963 -0.5728998000000001 1.9942001999999999
Zr 1.3556976499999962 -2.6803998999999994 0.5047001999999985
Cu -0.837402350000005 2.583701200000002 -1.6729999000000007
Cu 2.70719905 -0.6961011999999993 -0.9029993000000012
Cu -2.6361999500000053 -0.01879970000000064 1.8271002999999997
Cu 1.5778008499999956 1.7124013999999992 -1.3120999000000015
Zr -0.35079955000000496 2.6803998999999994 0.9007000999999999
Cu 2.0845985499999955 1.620200200000001 1.1164002999999987
Cu 0.3763008499999998 1.2652006000000018 3.0509000000000004
Cu 0.07730104999999554 -0.19139950000000105 -0.18379920000000105
