11

Zr -1.3754998 -2.6105499499999993 0.3032500500000004
Zr -2.4608002000000013 -0.33314894999999467 -1.7210999500000002
Zr 1.9452017999999995 -2.176246649999996 -0.09092984999999976
Cu 0.21100230000000408 1.4267501500000037 -1.96895985
Cu -1.5228995999999952 1.479652350000002 0.09962004999999996
Cu 0.507099199999999 -1.199947349999995 -2.21482005
Cu 2.418201400000001 0.4474525500000013 -0.7179199500000002
Zr 1.0157013000000035 2.6105499499999993 0.8186699499999999
Cu 0.4760017999999988 -0.81974795 1.8293100499999997
Cu 2.4608002000000013 0.6017532500000016 2.2148200499999997
Cu 0.10729979999999983 -0.31404874999999777 -0.32445984999999977
