16

Zr -0.6502989999999897 -0.585996650000002 -3.139001799999999
Zr -2.7337035999999983 0.6429996500000037 -1.4362011999999886
Cu 0.05139920000000586 2.03810305 -1.7792034999999977
Cu -0.7857971999999904 -2.5302982499999978 0.9853991000000057
Cu -2.3528976999999998 -1.6313991499999965 -0.3407039999999917
Cu -0.5453033999999946 -2.697198849999996 -1.3155041000000018
Cu -1.912200999999996 -0.44369694999999965 2.167398400000007
Cu 0.9824981000000008 -1.5256977499999955 2.1713962
Cu -0.5575027999999946 2.34560205 1.1571979000000105
Zr 0.44080350000000124 1.1205005499999992 3.139001799999999
Zr 1.9644011999999975 -2.7455997500000002 -0.007200299999997384
Cu 1.5206985000000088 -2.0192966499999976 -2.677999599999996
Zr 2.249801599999998 0.9421023500000025 -2.3446026999999994
Cu 2.7337035999999983 -0.02229885000000209 0.7622012000000034
Zr 1.9514007000000078 2.7455997500000002 0.4008959999999995
Zr -0.16570289999999943 -0.17429914999999951 -0.13629719999999068
