14

Cu -0.78965 0.20195015000000005 -2.9888992499999993
Zr 2.185850099999998 0.0075492499999985085 -1.6805991500000026
Zr -2.567150100000001 -1.0556507499999999 -1.5663985499999988
Cu -0.032650000000002066 -2.584550850000001 -1.6828994500000043
Zr -0.6616496999999999 -1.9111500500000016 0.9728012499999998
Cu 2.177249899999998 -2.382249849999999 -0.04819864999999979
Cu 0.8091506000000006 1.9785499499999997 -1.846900950000002
Cu -1.6414500000000007 0.5587501499999998 1.1260986499999994
Zr -1.8666505999999998 2.0039500499999985 -1.0694007500000033
Cu 0.3757496000000007 -0.5746498500000019 2.9888992499999993
Cu -0.020950400000002034 1.951549550000001 1.4482994499999968
Zr 2.567150100000001 0.3182506500000013 1.3264007500000012
Cu 2.2720488999999997 2.584550850000001 -0.016899050000002802
Cu -0.013149300000000252 0.06674954999999905 -0.5996017500000015
