14

Cu 0.7413718900000035 -2.1774024999999995 -1.8406486499999986
Cu 0.03477209000000414 -2.8715018999999984 0.1914558500000041
Cu -1.5991408900000081 -1.330799099999993 -2.7855491500000014
Zr 3.0337416900000065 -0.9681051999999966 -0.39354705000000223
Zr -0.6985381099999941 2.8715018999999984 -0.09224694999999627
Cu -0.7280581099999992 1.1301994000000093 -2.3475494500000025
Zr -3.0337416900000065 0.3254967000000022 -1.3015479499999998
Cu 0.10404189000000486 1.0295982000000095 1.9416543500000003
Cu -2.3519408900000016 -2.036899599999998 0.3275489500000006
Cu 1.5766317900000004 1.144001000000003 -0.7450485499999999
Cu 1.8213116900000017 -0.8807029999999969 2.1397514499999986
Zr -1.7396438900000035 -1.567699399999995 2.7855491500000014
Cu -2.481838990000007 0.6030007000000097 1.4313545500000018
Cu -0.33841830999999445 -0.4761008999999916 -0.12464905000000215
