11

Zr -0.3010540000000006 -1.358197999999998 -1.944398849999999
Cu -1.5516490999999988 1.3611011999999967 -0.9456997499999957
Cu 0.5910510999999943 0.9545994000000029 -2.79509925
Zr 2.5406513000000004 0.209001599999997 0.4147014500000026
Zr 1.1030522000000005 2.7669010000000007 -0.3735981499999994
Zr 1.0687503999999919 -2.7669010000000007 0.2631015500000018
Zr -1.405752200000002 -1.5528011 2.79509925
Zr -1.7161541000000042 1.7566013999999974 2.330202050000004
Cu -2.5406513000000004 -1.210699100000003 0.43910025000000275
Cu 0.9919530000000023 1.7143002000000003 2.2227001500000014
Cu -0.21594809999999853 0.277502099999996 0.3635997499999988
