16

Cu -0.9707489000000038 -0.7997500500000005 -2.7134971499999985
Cu 1.2631492000000009 -1.82018965 -2.2059974500000017
Cu -1.5907478000000026 1.8189799500000006 -2.26440045
Cu 1.1453513999999956 0.8492696499999997 -2.8558006500000026
Zr -1.1421471000000025 -3.0275800500000005 -1.215900450000003
Zr 1.9218520999999953 -2.5470898500000003 0.2290000499999998
Zr -3.0019492999999997 -0.6990797500000006 0.12100214999999892
Cu 1.1466521999999983 1.51028035 2.1173019500000017
Zr -1.4078483000000048 1.2662198500000001 2.7474021500000028
Cu -0.9831505000000007 -1.8069097500000004 0.946800249999999
Cu 0.8324507999999966 -0.9095699500000003 2.8558006500000026
Cu 3.0019492999999997 -0.4261200500000002 1.595901450000003
Cu 2.4069518999999957 2.151679749999999 0.31669994999999673
Cu -2.0530472000000017 2.05697995 -0.0686989500000017
Zr 0.5553512999999981 3.0275800500000005 -1.0951995500000002
Zr 0.31005090000000024 0.08308964999999935 -0.07669834999999736
