13

Cu -1.7105502999999977 -1.9340168700000078 -0.7028483500000036
Cu -1.9421500999999992 1.6407023699999996 -1.550348150000005
Cu 2.0173492000000017 -0.9334926299999964 1.9093532499999952
Cu 2.157449700000001 -0.46685872999999845 -0.8122500500000029
Zr 1.3513508000000023 2.0586722700000024 -1.6482485500000053
Cu -0.4503497999999979 0.29151226999999835 -3.13825035
Zr 0.5825500000000012 -1.9806171700000021 -2.019548350000001
Cu 2.5011501000000003 1.152622270000002 1.1980495499999932
Zr 0.18684960000000217 2.418422370000002 1.9483509499999982
Zr -2.5011501000000003 -1.8155170699999985 1.6662502499999974
Cu -0.5502490999999985 -0.8803037300000014 3.13825035
Cu 0.5260506000000014 -2.418422370000002 1.0674496499999933
Cu 0.15394970000000185 0.06978227000000459 -0.030549950000001047
