13

Zr -1.2635001999999993 1.2803021000000037 -2.8215002999999994
Cu -1.139400400000003 -1.2022991000000012 -2.0870995999999993
Zr 1.6343001999999949 -1.5069981000000006 -2.0581001999999993
Cu 1.5175017999999945 1.9604014999999997 -1.928100099999999
Zr -0.10509880000000393 -2.710599900000002 -0.15650029999999848
Zr -2.696399700000004 2.109601999999999 -0.23620079999999977
Zr -2.784400999999999 -1.3526974000000003 0.3243003
Zr -0.8639984000000034 -1.236597100000001 2.8215002999999994
Cu 1.0667991000000008 0.5142002000000012 2.669000200000002
Zr 2.784400999999999 0.29450029999999927 0.04709960000000191
Zr 0.2826995999999973 2.710599900000002 0.7863993999999996
Cu -1.9129982000000005 1.1259022000000023 1.9414992000000018
Cu -0.19680020000000198 0.10160260000000321 -0.5138992999999994
