13

Zr -2.2979508000000024 1.5434232699999981 -2.356647549999998
Cu -0.9111480999999984 -1.2508792699999987 -2.9222488500000026
Zr 0.9922485000000023 0.95961582999999 -2.643150349999999
Zr -0.9626503 2.5008792699999987 0.41425325000000157
Cu 2.049652100000003 1.7229852700000023 -0.10585025000000314
Cu -2.3172493000000003 -0.3319797700000038 0.7745513499999959
Cu -1.356651399999997 -2.5008792699999987 0.3722534500000023
Zr -0.943851500000001 0.3736171299999995 2.9222488500000026
Zr 0.9609488999999982 -2.449579270000001 -1.5208511499999986
Cu 1.9223518000000013 0.7756176299999993 2.331550550000003
Zr 1.3691519999999997 -2.2470798700000074 1.9921493500000054
Cu 2.3172493000000003 -0.39028357000000824 0.08105464999999867
Cu -0.028751399999997318 0.11092182999999523 -0.4011459500000001
