12

Cu -0.12760059999999918 2.321700319999998 -1.6108493500000023
Zr 2.2827996999999964 2.049550619999998 0.22075085000000172
Zr -0.7109995000000016 0.1639944799999995 -2.5800495499999982
Zr -2.435601199999999 -1.7353051200000067 -0.506948450000003
Cu -1.8808011999999987 1.133499779999994 0.38044934999999924
Cu -1.5677004000000014 -0.7412026200000099 2.5800495499999982
Cu 0.3278990000000004 -2.321700320000005 -1.7616481499999992
Cu 2.435601199999999 -0.1869042200000024 1.8196506499999998
Zr 0.21489999999999831 -2.197203920000007 1.1989498499999982
Cu 2.1689996999999988 -1.2810052199999973 -0.7557506500000031
Zr 0.1002989000000003 1.3788000799999907 2.324251150000002
Cu 0.1321001000000006 -0.07960442000000967 0.019750549999997702
