10

Zr 0.6202507499999985 1.0978498499999993 -2.409151050000002
Cu -2.244150150000001 -0.684449149999999 0.6952495500000033
Zr -0.2386493500000011 -2.318650250000001 -0.709550850000003
Cu 2.244150150000001 -0.8729486500000014 0.41195105000000254
Zr 0.21415134999999985 -1.1469488500000011 2.383951149999998
Zr -2.148750250000001 -0.2609491499999983 -2.3304500499999996
Zr -2.1034488500000013 2.107350350000001 -0.15595054999999647
Cu -0.77674865 1.2072496500000014 2.409151050000002
Zr 1.6348495500000002 2.318650250000001 0.7080478500000034
Cu -0.09804915000000314 0.07955074999999923 0.02834894999999804
