11

Zr -1.3207997500000008 0.09729479999999979 -2.7854500000000044
Zr 1.8623990499999987 -0.24790530000000066 -1.6681556999999927
Zr 0.22679994999999842 2.4777951000000003 -1.8374518999999978
Zr -2.388100549999999 -1.130704900000001 0.03504559999999657
Cu -0.2760991499999985 -2.4777951000000007 -1.786350199999994
Cu 1.480299950000001 -2.3027852000000006 0.175350200000004
Zr -0.513600349999999 -1.1425953000000004 2.7854500000000044
Zr 2.388100549999999 0.4030450999999995 1.5192452000000074
Cu -2.0089006499999993 1.4564747999999992 -0.4249533999999997
Cu -0.05779935000000158 2.1295045999999993 1.1907463000000078
Cu 0.07779974999999872 0.027665099999999665 -0.11664950000000118
