14

Cu -2.708599099999999 0.5126514499999999 -0.5097522500000036
Zr -1.5000990999999981 -1.70015145 -2.4854507500000036
Cu 1.4120025999999992 -2.4073505499999968 -1.426252350000004
Cu 2.708599099999999 0.3782520499999933 -0.7354525500000033
Cu 1.070499400000001 -0.31255145000000084 -2.4544506500000036
Cu -1.1747988999999972 0.7810460499999934 -2.635450350000001
Zr 0.5995007000000019 2.4073505499999968 -1.088651650000001
Cu -0.7101992999999975 -2.2704485499999976 0.3344478499999983
Cu -2.066200099999998 -0.8673496500000013 1.6912479499999993
Cu 1.389301300000005 0.5277500500000016 1.6013507499999964
Cu 2.157402100000004 -1.8887500499999987 0.9044475499999951
Cu 0.4955998000000026 -1.7261485499999978 2.635450350000001
Zr -0.8466986999999992 1.5842533500000044 1.6681499499999948
Cu -0.03919969999999928 -0.16254994999999894 -0.531652450000001
