13

Cu -1.4534493499999996 0.290950699999998 -2.1732492500000014
Zr 1.2881507499999998 1.1940498000000002 -2.1017484499999988
Cu -1.5179482500000034 2.396549200000001 -0.8746518500000029
Cu -1.0193482500000002 -2.9186497000000013 -0.6932515500000029
Cu -1.2282486500000047 0.9338493000000003 1.9766512499999997
Zr -2.7084503499999997 -1.0786494999999992 0.3632517499999999
Cu 2.7084503499999997 2.361249899999999 -0.1671514500000022
Cu 0.362049049999996 -1.3996505999999993 -2.1466512500000015
Zr -0.001449650000004965 -1.9257507 1.874650049999996
Zr 2.410251549999998 -0.9864501000000008 0.3269510500000017
Cu 0.47655104999999764 2.9186497000000013 0.6583490500000018
Zr 1.506050049999999 1.1857489999999995 2.1732492500000014
Cu -0.10215004999999877 0.15144930000000123 -0.11535165000000447
