15

Zr -0.36930080000000487 0.6183499499999989 -2.8218993999999995
Cu -1.4733047 -1.865750349999999 0.43499759999999554
Cu -1.7403031000000055 -1.5536509500000015 -1.8516006000000047
Cu -1.7864990000000063 -0.35125075000000194 2.5169982999999974
Zr 1.0761947999999961 -2.046250350000001 -1.3495024999999998
Zr 0.8985976999999963 -0.8060503499999996 2.8218993999999995
Cu 0.5714950999999928 -2.887249950000001 1.075099999999999
Cu 1.9523010000000056 0.9129495500000004 -1.4782028000000054
Cu 2.083297799999997 -0.9553499500000022 0.5629998
Cu -0.07670590000000743 2.046648949999998 2.5172996999999953
Cu -2.361999499999996 0.37225044999999923 -0.6090011000000004
Cu -0.6724013999999983 2.887249950000001 -0.29940030000000206
Cu -2.1840057 1.9834489499999997 1.3039970999999966
Zr 2.361999499999996 1.765149049999998 1.1038970999999975
Cu 0.2216949000000028 0.31084914999999924 0.4011993999999959
