15

Zr -0.5163282600000016 0.14764975000000113 -2.8165101999999997
Cu 2.182931940000003 0.5011501499999991 -1.9064101999999998
Zr 0.5051117400000038 -2.6774501500000003 -1.3707098999999996
Cu -1.808708160000002 -1.4331502499999988 -1.5081100000000003
Zr -1.758204940000006 -1.8847503499999991 1.612210300000001
Cu 2.5231520399999994 -2.08325005 0.5019597999999998
Cu -3.070102240000004 -0.017749849999999512 -0.5582198999999992
Cu 0.2056418399999984 2.4740505499999994 -1.1554997999999994
Zr 3.070102239999997 1.3241500500000019 0.7289800999999994
Cu 0.817381840000003 2.6774501500000003 1.01581
Zr -2.352603440000003 1.4352493500000012 2.1606102000000007
Cu -2.2804979400000107 2.2098502500000006 -0.5050296000000003
Cu 1.0208516400000036 -2.0646505499999996 2.5329104000000005
Cu 1.1215520399999974 0.48805045000000113 2.8165101999999997
Zr 0.34944203999999957 0.33734895000000087 0.32258990000000054
