15

Cu -0.22664824999999666 -1.7963490999999996 -1.8389000999999991
Zr 0.4348507500000025 1.0917506000000001 -2.7664999999999997
Cu 0.7043514499999972 -3.3179498 0.1810002000000006
Cu -1.4888515499999997 -2.190549399999999 0.7673002000000002
Zr -2.8329486499999987 -0.7032494999999992 -1.6398005000000007
Cu -2.4535503500000004 0.6223502000000005 0.8211999000000008
Zr 1.2152500500000016 -1.9819492999999992 2.451798899999999
Cu 2.8329486499999987 0.13775110000000002 1.7152991999999996
Zr 2.50884825 -0.8856492000000005 -0.6160006000000005
Cu -1.818849550000003 1.9462514000000004 -1.0479998000000004
Cu 0.6540508499999973 3.3179498 -0.8644004000000001
Cu 2.4468517500000004 1.6010498999999987 -1.0744003999999991
Cu 1.299551049999998 2.2601514000000007 0.8319002000000006
Zr -0.8010501500000018 0.36725089999999927 2.7664999999999997
Zr 0.3229503499999993 0.15505069999999943 -0.058200300000000205
