16

Zr 0.2916527000000002 0.6040496500000074 -3.1898994
Cu -1.7331504999999936 -1.5910491500000035 -1.5483990000000016
Cu 2.217250800000002 -0.07204434999999876 -1.7926006000000019
Cu 0.4953499000000079 -1.9894485500000059 -2.425600000000001
Cu 1.9938469000000083 -2.2284469500000057 0.36280059999999814
Cu -0.5155524999999983 -2.662849449999996 0.4591006999999987
Zr -3.036251100000001 0.5164489499999974 0.05170059999999843
Cu -1.2561530999999917 2.285354650000002 -0.6478003999999995
Cu 1.0407524000000024 2.662849449999996 -0.8334005999999992
Cu -1.3468513999999914 -1.0045471499999934 2.1723003999999992
Cu 1.1464501000000098 -1.7579498500000028 2.5878010000000007
Cu 3.036251100000001 -0.3284454500000038 1.6653003999999978
Zr -1.2693519999999978 1.9648513500000035 2.082000800000001
Cu 2.7561455000000024 2.2201538500000026 1.0564996000000004
Zr 1.2598456999999996 1.0142517499999997 3.1898994
Zr 0.24664690000000178 -0.07695004999999355 0.10930059999999919
