13

Cu 1.1142833600000017 0.3231012299999989 -2.309351000000003
Cu -1.907414639999999 0.8723032299999929 -1.070550899999997
Zr -0.6900150400000058 2.992595470000005 0.4318484999999974
Zr 2.6433155400000032 -0.3923986699999986 -0.12154959999999804
Zr -2.6433155400000032 -1.4891927699999954 -0.5464497000000001
Cu -0.5367176400000062 -1.0561940699999965 -2.3580494000000023
Cu 1.1867854599999959 2.0267024700000036 -0.6662501999999968
Zr 1.362284459999998 1.6711310700000013 2.1735514999999985
Cu 0.3902842600000014 -1.4145925700000035 1.8103504000000008
Cu -0.1038182399999954 -2.916995770000007 -0.32734869999999816
Zr -1.8348209400000002 0.5408060299999917 2.3580494000000023
Cu -1.2515156399999938 -2.992595470000005 1.6635493999999973
Cu 0.003481660000005604 -0.24109247000000522 -0.24965099999999651
