14

Cu -2.967903100000001 -0.15695100000000117 1.9707508499999982
Zr -2.0020980000000037 -0.672751400000001 -2.7698497500000023
Zr -0.2018051000000014 -2.9968500000000002 0.13775064999999742
Cu -2.8084029000000044 -1.3530512000000012 0.057050749999998374
Cu 1.905700699999997 -1.6117505999999988 0.908052449999996
Cu -0.3320007000000089 -1.3232507999999985 2.1573505500000003
Zr 1.246894900000001 0.4524507999999994 2.7698497500000023
Zr 1.263099699999998 -1.1929502000000003 -1.8170490499999978
Zr -3.082199099999997 1.8326502000000016 -0.7498492500000005
Zr 0.07659920000000398 1.6453486000000037 -1.7750491499999974
Zr -1.0331039000000004 2.1666498 1.902750049999998
Cu 3.082199099999997 0.7477503999999993 0.12365155000000172
Cu 1.3406982999999997 2.9968500000000002 0.5813503499999975
Cu -0.4637984999999958 -0.1821508000000005 0.10925105000000102
