16

Cu -1.6412505999999993 -2.2380505 0.6842380150000054
Cu -3.0088501 -0.38995170000000456 1.563908115000011
Cu -0.6982497999999993 1.3162479000000005 2.1972480150000067
Cu -1.7772502999999986 0.6220493000000005 -0.787321784999989
Cu 1.755949000000001 -0.6656513000000004 -1.6465918849999923
Zr -0.16374970000000033 0.3777484999999956 -3.2954483150000016
Cu -1.2245501999999995 -1.5569515000000038 -1.60439178499999
Zr 1.000949900000002 -2.9929485000000042 0.12429811500000909
Cu 2.686050399999999 -0.45765109999999964 1.0833483150000092
Cu 3.0088501 1.537748299999997 0.2864180150000095
Zr 0.9985505000000003 2.344747500000004 -2.0212318849999917
Cu -0.6365508999999996 2.468351399999996 -0.06522168499999026
Zr 0.06444929999999971 -1.217950800000004 2.9305181150000124
Zr 2.1026497000000006 0.6308498 3.2954483150000087
Cu 1.124849300000001 2.9929485000000042 1.2470579150000063
Zr 0.26305010000000095 -0.04084970000000254 0.2622681150000119
