14

Cu -1.0060463499999912 -1.7952041500000036 -0.7181987000000021
Cu 1.823154450000004 -2.4848022500000013 -0.04479789999999895
Zr 1.1950492499999967 -1.3406982500000026 -2.5855998999999983
Zr -3.0085487500000028 -0.27709955000000264 -0.7828006999999957
Cu 3.0085487500000028 0.4099961499999978 -0.8291988000000003
Cu 2.5334510500000107 -0.28870385000000454 1.1154003000000046
Cu -1.8792457499999955 2.4848022500000013 0.1600018000000034
Cu -0.9035453500000017 0.3549957500000005 -2.2016009999999966
Zr 1.3634529500000099 2.273002649999995 -0.17780109999999638
Cu 0.5031548500000014 -1.7815017500000039 2.1649990000000017
Cu -1.701045949999994 -1.874702450000001 1.6885013999999998
Zr -1.1545448499999935 0.7834015499999936 2.4335002999999986
Cu 1.5264550500000098 1.7004013499999928 2.5855998999999983
Cu 0.007953650000004586 0.195098950000002 0.24479870000000403
