12

Cu -1.4801482999999998 -3.0033492999999964 -0.6803989499999972
Zr -2.202251399999998 0.016845700000004626 1.887899350000005
Cu -0.9677504999999975 2.1768493000000007 -1.8166980499999994
Zr -0.054550099999996604 -1.5744552000000027 -2.3715000500000016
Cu 1.3920516999999997 2.3233489999999932 -2.232198750000002
Cu 2.2866516000000026 -0.8496552000000008 -0.1399975499999968
Zr -2.2866516000000026 -0.20895389999999736 -1.1277981499999967
Cu 1.0556488999999978 0.642150799999996 2.3715000500000016
Zr 1.7182502999999976 2.6945494999999937 0.2564029500000018
Zr 0.37694930000000326 -1.7667542000000083 1.3572025500000038
Zr -1.5073509000000023 3.0033492999999964 0.7894000500000047
Cu -0.22105019999999698 0.41044619999999554 -0.08279995000000184
