14

Cu 0.25344839999999635 -1.6987495999999993 -1.5719032000000013
Cu -1.201347400000003 -2.699949199999999 -0.02140430000000748
Cu -2.6577529999999996 -0.1717492000000007 0.7774009999999905
Cu 2.2541504000000003 -0.8977508999999984 0.13479999999999137
Cu 0.07685080000000255 -1.2534503999999984 1.4117011999999889
Cu -2.4073487 1.9760494000000008 -0.951297799999999
Cu 1.4537505999999922 0.3794497999999997 2.4659004000000024
Cu 2.6577529999999996 1.2358493000000017 -0.26330190000000897
Cu 0.6749495999999908 1.094450000000002 -2.4659004000000024
Cu -1.7486496000000074 -0.06744959999999978 -1.467304200000008
Cu 0.44674679999999967 2.699949199999999 -0.9343986000000015
Zr -1.0024491000000069 1.7541502999999992 1.4463996999999935
Cu 1.3588484999999935 2.523149400000001 1.2719001999999975
Cu 0.2040480999999943 0.6974505999999998 -0.4257011999999989
