15

Cu 2.330997499999995 2.1949063 -1.094698000000001
Cu 1.1349982999999924 0.7485364999999997 -2.6793003000000013
Zr 0.5693016000000028 -2.3090965000000003 -1.9114971999999995
Cu -2.3456991999999985 2.4426966999999995 -0.4307994999999991
Zr -2.788997600000002 -0.22888330000000057 1.0792026000000021
Zr 0.1186027999999908 -1.8510235000000004 1.7707995999999966
Cu 2.788997600000002 -0.5008835000000005 -0.8195972999999981
Cu 2.705402399999997 -0.7297136000000002 1.4227009000000024
Cu 1.5135993999999897 0.5550663999999994 2.6793003000000013
Cu 2.550296799999998 2.4310666 1.7394007999999985
Zr -1.8745995000000022 0.6032565999999995 -2.4839000999999996
Cu 0.03039929999999913 2.8169165 -1.3050976000000034
Cu -0.3188972000000092 2.224956599999999 2.600000399999999
Cu 1.9954032999999924 -2.8169165000000005 0.6727009000000024
Zr 0.5772971999999896 0.5259063999999998 0.2569026999999977
