15

Zr -2.4547510999999993 0.5642597999999999 -1.5017490499999973
Cu 1.8977497999999997 1.3945401 -2.1568508500000014
Cu -1.3469495999999985 -2.3239699000000003 -0.3632488500000015
Cu -0.5339498999999996 -0.7994699000000001 -2.363950749999997
Zr 2.5571489000000014 -1.5437901000000003 1.0173511499999996
Cu 2.9056502 -0.6182100000000004 -1.6569499500000013
Zr 1.4092492000000014 1.9082101000000002 0.7484492500000037
Cu -0.6193513999999993 1.5883300999999999 -2.91674995
Zr 1.0621499000000014 -2.6701200000000003 -1.8257503499999963
Cu -0.45674999999999955 2.6701200000000003 -0.4753513500000004
Cu -2.9056502 -0.4120199000000002 1.2792491500000018
Cu -0.9562503000000007 1.5349299999999997 1.4942493500000005
Zr -0.6179515000000002 -1.7033300000000002 1.9621486499999996
Zr 1.1424492999999991 0.3971497999999998 2.91674995
Cu -0.05144989999999794 -0.0182500000000001 -0.3041515499999967
