11

Zr -0.12944804999999704 -0.7229500000000044 -2.6411505
Zr 1.5682524499999992 1.7591514000000004 -0.4133501000000006
Zr -2.448349050000001 -1.5823517000000038 -0.642850000000001
Cu -1.0067482499999976 1.3869515000000021 -0.9769507000000015
Zr 0.502349750000004 -2.974750499999999 1.182450300000001
Cu -0.866848049999998 -1.3241501000000042 2.4565496000000007
Zr 1.239952050000003 0.7820510999999968 2.6411505
Zr 2.448349050000001 -1.106948899999999 -0.44755080000000014
Cu -0.3648491500000013 2.974750499999999 0.9669504
Cu -1.9013481500000005 1.344749499999999 2.051249399999998
Cu -0.09605035000000228 -0.21884920000000108 0.19764990000000004
