14

Cu -1.9313487500000015 -2.42424965 -0.3271484499999957
Cu -2.4073505500000003 0.3321513500000002 0.10565185000000099
Zr -1.0261478499999974 -0.5237503500000003 -2.4031524499999932
Zr -1.3651485499999971 -1.615949650000001 2.1971511500000105
Cu 0.32515145000000345 -2.755649550000001 0.13784785
Zr 1.390150049999999 1.5881499499999983 -2.468452450000001
Zr 2.3999500500000046 -1.1605491500000014 -1.84815214999999
Cu -0.9655475500000001 1.9937496500000016 -1.0202484499999969
Cu -1.1666507499999987 2.3984489500000024 1.4158477499999975
Cu 0.26825135000000344 0.6451511500000002 2.468452450000001
Zr 1.7043514500000008 -2.0524501499999985 1.9646529500000014
Cu 2.4073505500000003 0.10065074999999979 0.6221465500000107
Zr 1.6721515499999988 2.755649550000001 0.7869491499999981
Cu 0.37275125000000386 -0.4733486500000019 -0.15575404999999876
