12

Zr 0.6130980499999978 -0.5075512000000018 -2.4116487499999995
Cu -2.587101050000001 0.35254859999999866 -0.9280500500000013
Zr -0.944500050000002 -2.801649099999999 -1.7680500500000011
Cu -1.7940025500000019 -0.9955501000000027 0.9828501499999991
Zr -0.6282997500000036 2.419050200000001 -1.2734498500000004
Cu 2.1512984499999988 1.774751699999996 -1.2170495500000005
Cu 2.587101050000001 -0.22714799999999968 -0.0546502499999999
Zr 0.6027983500000005 -2.7890490999999997 1.2178507499999984
Cu -1.2910004499999985 1.6150493999999966 1.3567515500000003
Cu 1.8204993499999986 -0.5701504000000028 2.4116487499999995
Cu 0.9487990499999981 2.801649099999999 1.1785517499999987
Cu 0.05979914999999636 0.20874990000000082 -0.05364895000000125
