12

Zr -1.563049300000003 -3.0900001500000016 -0.6971969000000016
Zr -0.6940499000000031 2.326099450000008 -2.1158981000000026
Zr -0.8172494000000015 -0.6923026499999949 -2.818603500000002
Cu 1.8359488999999982 0.5734977500000085 -1.9521026000000106
Zr 1.3382490999999987 3.0900001500000016 0.19449619999999612
Cu -0.5646477000000019 -2.4750022499999957 1.4207992999999917
Zr -2.5601501000000013 0.24850085000000632 0.3648986999999906
Cu -1.050350299999998 2.9407997500000036 1.4941024999999897
Cu 2.5601501000000013 0.2240944500000026 0.8715972999999977
Zr 1.511649999999996 -2.4821052499999965 -1.0279999000000046
Zr 0.1446493999999987 0.1637993499999979 2.818603500000002
Cu 0.10134879999999669 -0.002002650000001438 -0.36650089999999835
