14

Zr -2.0917015500000034 1.5576649200000006 -1.7957040000000006
Cu -2.6086998500000007 0.8648450200000042 1.2636985000000038
Cu 0.7332992499999946 1.1876049199999983 -2.4150046999999972
Cu 2.6086998500000007 -1.1365059800000026 0.858196200000009
Cu 2.5354995499999973 1.4249251199999975 -0.37009809999999277
Zr -0.5423011500000001 2.9026152200000013 0.20199960000000772
Zr -0.9898986500000007 -1.396816820000005 -2.725200700000002
Cu 2.0824012499999967 -1.0347182200000091 -1.7435035999999968
Zr 0.7038993500000004 -2.9026152200000084 -0.8642998999999918
Cu -0.7342987500000007 1.182375020000002 2.725200700000002
Zr 1.66959765 1.6852150200000011 2.2741965999999962
Zr -2.555500049999999 -2.1429183199999997 -0.5420036999999951
Zr -0.24489975000000186 -1.9582183200000074 2.58949650000001
Zr 0.0989990499999962 0.16350502000000233 0.16460030000000359
