16

Cu -0.5586996000000024 -1.875596999999992 -2.1457005000000002
Cu -0.6038008000000001 -3.1771984000000018 0.21209909999999965
Cu -2.5295000000000005 -1.6709995000000006 -0.6934986000000016
Cu 1.5379992000000033 0.8384992000000082 2.777902600000008
Cu 2.5173998000000015 -1.9865971000000044 -1.2306995999999977
Zr -2.9371004000000003 1.0029048999999972 -0.2181987999999997
Cu -1.2179002999999984 0.5116024000000081 -2.3044985999999987
Zr 0.8816003999999982 2.200498599999996 -1.927698099999997
Cu 0.7587977000000041 3.1771984000000018 0.42780109999999993
Cu 1.1241999000000025 -0.3442020000000028 -3.028001800000002
Zr 2.9371004000000003 1.0152035000000055 0.25300030000000007
Zr -1.916800499999999 -1.2024019999999993 2.541498199999996
Cu 2.7092981 -1.201394999999998 1.9398975000000043
Cu 0.6303988000000036 -1.9028949999999938 3.028001800000002
Zr -0.7312993999999957 1.9154033999999953 2.3108996999999967
Zr 0.3976983999999977 -0.19259819999999905 0.0357990000000008
