12

Zr -0.6552523500000014 1.4464970000000044 -2.5131998000000006
Zr -1.9958515500000011 -2.2674999000000007 0.3336002000000011
Zr -0.221849449999997 -1.4935016999999995 -2.0952997
Cu 1.916349450000002 0.49849889999999775 -2.311900100000001
Cu -0.078050649999998 2.2674999000000007 0.07569990000000182
Cu 2.245950650000001 1.1247997000000005 0.17500020000000127
Cu -2.0681514499999984 0.21879769999999965 2.5131998000000006
Cu 1.036046950000003 0.6179981000000048 2.2424002000000005
Zr -2.245950650000001 0.6995983000000017 -0.23960009999999876
Zr 1.7009487499999985 -2.0419025999999967 0.012000099999999847
Cu -0.24855235000000064 -1.895402899999997 2.2333002000000004
Cu 0.4383487499999994 0.2381992000000004 0.020400100000001586
