15

Zr 1.1124000500000015 -0.15501995000000068 -2.8965491999999955
Cu -0.29169845000000194 -2.1614400500000004 -2.6126517999999948
Cu -1.63699905 -2.0011899500000006 0.469249700000006
Cu 0.6845016499999979 -2.9112899500000005 0.38475420000000327
Zr 0.9842987499999971 -1.6072599500000004 2.8965491999999955
Cu -2.9879989500000015 1.1174800499999993 0.7180519000000061
Zr -2.9163989500000014 -0.4462401500000004 -1.2396506999999986
Cu -1.4258002500000018 1.762289749999999 -1.6199455
Cu -1.0622977500000026 2.461100349999999 1.0427514000000002
Zr 2.9879989500000015 0.73030025 -0.5202522000000016
Cu 1.5181007499999986 2.9112899500000005 0.9720498000000077
Zr 2.727298749999999 -2.3254000500000007 -0.8087501999999915
Cu 1.4482002499999957 0.49800994999999926 1.8784523000000064
Cu -1.4864996500000025 -0.06872005000000048 2.1282539000000043
Zr 0.30060194999999723 -0.18953005000000012 -0.17374800000000334
