12

Cu -1.450335559999992 -0.3091506499999994 -1.759399349999999
Cu 1.3878346400000083 -0.5232467500000055 -2.4622993499999986
Cu -1.0041151599999907 2.307746950000002 -2.1861991500000038
Zr 1.3499646400000103 2.3894500500000007 -1.7152976500000001
Zr 1.7035546400000072 -2.09304805 0.13760004999999964
Cu 2.6722750400000024 0.9781494499999965 0.18140035000000054
Zr 0.1862545400000073 2.299049449999991 1.3269996500000012
Cu -1.096285359999996 -2.3894500500000007 -0.5964011500000019
Zr 2.111354840000004 -0.10925295000000546 2.4622993499999986
Zr -2.6722750399999953 0.9827499499999917 0.2164001500000019
Zr -1.0516052599999952 -1.2458496500000038 2.0760002499999963
Cu 0.2545247400000079 0.06905364999999364 -0.05770105000000214
