15

Cu -1.8202990999999962 -1.8779011000000043 -0.9479007500000023
Cu -1.790300300000002 1.9349995000000018 -2.392301549999999
Cu -0.35970119999999994 -2.7478999999999996 -2.449300749999999
Cu -1.3444004000000014 -1.5025996999999993 1.5388012499999988
Cu 0.7654018000000029 -2.2468014000000007 0.05359845000000263
Cu 2.5871983000000007 -0.39539910000000056 -0.37380025000000217
Cu 1.4992008000000006 -1.309701900000002 -2.8519992499999987
Cu -2.5871983000000007 0.6929988999999974 -0.6528987499999985
Cu -1.1689013999999993 -0.13820080000000168 -2.5902995499999975
Zr 0.5507984000000015 2.0494976000000005 -1.76749985
Cu 1.2566013000000034 1.5662974999999957 0.7352008499999982
Zr -1.3853016000000018 2.7478999999999996 0.5474987500000026
Zr 1.128801400000004 -0.9218005999999992 2.8519992499999987
Cu -0.42410089999999556 1.1074010000000012 2.5770016499999997
Cu -0.26560019999999795 -0.09940150000000081 -0.09520144999999758
