12

Cu -0.691999500000005 -2.001045249999997 -1.2276001
Cu -0.5291004000000008 0.3906555499999982 2.3889999999999993
Zr -2.5860003999999996 -0.964645350000005 -0.031501800000004465
Zr 0.26450149999999795 -2.925750749999999 1.2565993999999954
Zr 1.8822992999999961 -2.070648150000004 -2.2999992999999996
Cu -0.5090009000000002 0.49335475000000173 -2.3889999999999993
Zr -1.7064991999999997 2.673553449999993 0.014598799999998135
Zr 1.4604013999999985 2.1959533500000035 1.2877997999999984
Zr 0.8243998999999995 2.925750749999999 -2.066398700000004
Cu 2.5860003999999996 0.5349503499999955 -1.3694001000000036
Zr 2.222398699999996 -0.9079437500000083 1.6240996999999986
Cu 0.46249959999999746 -0.06344605000000314 -0.2095986000000032
