14

Cu -2.473249450000001 -2.0336494499999986 -0.6887852000000003
Cu -1.2416496499999994 -1.0216484499999936 -3.0400151
Zr 0.7986507500000002 -1.6845474499999966 -1.9904252000000002
Cu -0.10095025000000035 0.8246536500000019 -2.317915
Zr -2.63825035 0.36875155000000603 -0.8424549999999997
Zr 0.6000499499999989 -2.861648549999998 0.6778248000000002
Cu 0.17035105000000073 -1.205348949999994 3.0400151
Cu -1.7152499500000005 -1.1403465499999967 1.5412449000000001
Zr 0.81245045 1.185653650000006 2.3029344999999997
Zr 2.63825035 -1.012847949999994 1.042755
Cu -1.6878490500000005 1.1896514499999995 1.4999645999999998
Cu 1.6604499500000003 1.3492507500000102 -1.0056353999999996
Zr -0.4429492500000016 2.861648549999998 -0.23018519999999976
Cu -0.16264915000000002 -0.3274498499999936 -0.05544530000000014
