16

Zr -1.7534007499999973 -1.6663989500000014 -0.9796748000000002
Cu -2.937700249999999 0.7387981500000009 -0.26401469999999927
Cu 1.2142010499999998 -1.0461025500000005 -2.8592849
Cu 0.9918995499999994 -2.3388995500000007 -1.1827349999999996
Cu -0.036699249999998074 -3.0921001500000003 0.5381847
Zr 2.937700249999999 0.7173977500000035 -1.3137850999999992
Zr -0.9531993499999984 1.1436977500000012 -2.4935248999999993
Cu -1.1396007499999996 3.0921001500000003 -0.2564148999999998
Cu -1.7782001500000035 -0.7586994500000017 1.7392850000000002
Cu 1.3878993499999979 2.8980007500000013 -1.2303947999999996
Cu 2.5608997499999973 -1.74419975 0.8640847000000007
Zr 0.5474987500000026 -0.9076023499999977 2.8592849
Cu -1.2456989499999978 1.4412975500000016 1.7859855000000002
Zr 1.100198749999997 2.874799750000001 1.424885300000001
Cu 2.8459987499999997 0.5596981500000027 1.1789850999999998
Zr 0.3100986500000005 0.294000650000001 0.010085599999999584
