15

Cu -3.0626487499999975 -1.0950508499999998 -0.7911509999999993
Zr 2.0318488499999994 -0.18944935000000385 -1.9496479000000022
Cu -0.11344914999999745 -0.637050649999999 -3.0272502999999986
Cu 3.0240516500000005 -0.7237510500000042 0.7925510999999972
Zr -0.46504975000000215 1.737449650000002 -2.4544506000000013
Zr 3.0626487499999975 1.981948850000002 0.19235039999999515
Cu -2.7168502499999967 -0.27024845000000397 1.7949504999999988
Zr -0.7990493500000007 -2.810451450000002 1.368848799999995
Cu -0.7171516500000017 -2.032348650000003 -0.9904499000000015
Cu 1.428150150000004 -1.6232491499999995 2.262151699999997
Cu -0.8134498500000014 -0.4140511499999988 3.0272502999999986
Cu -2.52235035 1.1828499499999978 -0.5212496999999985
Cu 0.5245513499999994 2.810451450000002 0.1429501000000002
Cu 0.7796516500000017 1.44245145 2.3270511999999997
Zr -0.04745104999999583 0.009048450000001651 -0.12064930000000373
