13

Zr -1.8349990999999992 -1.3527320299999985 -2.660255450000001
Zr 1.251400000000002 0.011526969999998471 -2.812950149999999
Cu -0.5897006999999999 -3.1583771700000014 -1.0786513500000083
Zr -1.6038990000000002 2.0533369699999966 -2.1694564500000055
Cu -1.5088005000000013 -0.2379530299999999 2.812950149999999
Cu -2.2957991999999994 0.9847569699999994 0.6835480499999917
Zr 0.6382008000000017 -2.139570670000005 0.8295441499999967
Cu 2.5007 0.829026970000001 -0.36005395000000107
Zr 0.1436004999999998 1.4310669699999963 1.7436447499999943
Cu -1.2381991999999986 3.1583771700000014 0.5719452499999917
Cu 0.8901997000000019 2.33812717 -1.1719512499999993
Zr -2.5007 -1.8191193299999995 0.5962448499999979
Cu -0.49929999999999986 -0.09070292999999907 -0.679054150000006
