11

Zr -0.6999491999999989 -1.0481490499999992 -2.3375014999999983
Cu 1.526050699999999 1.3878479500000012 -1.602798399999994
Zr -1.46875 1.612350450000001 -0.7515030000000031
Zr 2.1772498999999996 -1.0945510499999997 -0.989402799999997
Cu 0.7549495999999998 2.7287521499999983 0.5720978000000052
Cu -2.1772498999999996 -0.8091506499999994 0.6172027999999976
Cu -0.3827494999999992 -2.7287521499999983 -0.3469009999999919
Zr -1.0447501999999993 0.9935531500000039 2.3375014999999983
Cu 1.225950300000001 -2.192352249999992 1.372200000000003
Cu 1.759250699999999 0.16175085000001133 1.7240981999999967
Cu 0.1310500999999995 -0.20704654999999406 0.16519930000000826
