11

Cu -0.5239486999999983 2.4268989499999876 -0.9203014500000002
Zr -0.7871476000000044 -2.40140155000001 -0.8019008499999991
Cu -0.824050899999996 0.05020524999999765 -2.4554004500000026
Cu -1.9542465999999976 0.33110424999998855 0.43189814999999854
Zr 1.9422532000000032 0.9739036499999898 -1.8740024500000025
Zr 0.9858474000000044 -2.432300550000001 1.8612003500000007
Cu -0.14324950000000314 -0.12170025000001061 2.4554004500000026
Zr 1.9542465999999976 0.9635047499999914 1.491098449999999
Zr 1.9337538999999921 -1.806598650000005 -0.7047023500000016
Zr -1.6734467000000066 2.432300550000001 1.7904987500000011
Cu 0.09145360000000125 -0.08050155000000103 -0.08480264999999676
