11

Zr -1.727250999999999 -2.5745001500000004 -0.3689976500000043
Zr -0.8106517999999987 0.2508001499999981 -2.869699449999999
Cu 1.2743512000000017 -1.2179003500000025 -1.8719005499999994
Cu 2.210050599999999 1.2877988499999997 -1.3302975500000045
Cu 1.0556506999999975 -2.5105008500000014 0.5631008499999979
Zr -0.8207491999999981 2.5745001500000004 -0.33909805000000404
Cu -0.6939487000000035 -1.73620135 2.0816020500000008
Cu -2.210050599999999 0.4047994500000005 0.3138027500000007
Cu -1.7683506000000015 0.8343991499999976 2.869699449999999
Zr 1.1757487999999974 0.9653997499999978 1.3952999499999947
Cu -0.1900501000000041 -0.2955007500000004 -0.09210015000000027
