14

Cu -1.616298650000001 -0.45740135000000137 -2.6397991500000018
Zr 1.1922989499999979 0.540798149999997 -2.367799749999996
Cu 2.320400249999995 -1.2409019499999978 -0.9434986500000022
Cu -0.3414992500000018 -2.5452003499999982 -1.1191005499999989
Zr 0.9518014500000014 -2.6165999499999977 1.5793018500000002
Cu -1.5826987500000023 -1.6856003499999979 1.0947017499999987
Cu -2.7305984499999987 0.47000124999999926 -0.32810024999999854
Zr 2.7305984499999987 0.011001549999999582 1.8514003499999987
Zr -1.459400150000004 2.403198249999999 -1.631200849999999
Cu 1.2537002499999979 1.8484992499999997 0.5513019500000027
Zr -1.2372016499999994 2.6165999499999977 1.4184016499999998
Cu -2.140098550000001 0.14809794999999681 1.9944019500000039
Cu 0.13610075000000066 0.26589964999999793 2.6397991500000018
Zr -0.1050987499999998 -0.18890005000000443 1.9499999979188942e-06
