15

Cu -1.8788986000000065 -2.660201950000001 -0.027299799999999763
Cu 2.0421981999999943 -2.0415992499999973 0.9398994999999992
Cu 0.32879639999999455 -2.706199650000002 -2.0503006
Cu -2.350196799999999 -0.8504028500000018 -0.9983005000000009
Cu -1.6362991000000093 1.5702972499999959 -1.6607999000000007
Zr -0.37069699999999983 -0.46369934999999884 -2.8927002
Zr 0.374198899999989 2.755199449999999 0.322099699999999
Cu 2.1336974999999896 0.8643990499999958 0.7491999000000007
Cu 2.239196799999995 1.1414985500000014 -1.4070005000000005
Cu 2.350196799999999 -1.4085006500000006 -1.2196996999999996
Cu -0.2926025000000081 -2.755199449999999 2.119499300000001
Cu -2.2657013000000106 -0.9952010499999986 1.7430993000000008
Zr 0.5418014999999983 -0.19420234999999764 2.8927002
Zr -2.0214996999999997 1.3917999499999993 2.0152989000000012
Zr -0.19400030000000612 -0.5465011499999974 0.0037994999999995116
