15

Zr -1.2999995999999996 -3.162498450000001 -0.21904760000001033
Cu -1.3750005000000005 -0.962799050000001 1.8252486999999888
Cu -1.0238004000000007 -1.3206023500000015 -2.3461533000000117
Cu 1.1283993999999993 0.2427978500000023 -2.9913482999999985
Cu 1.1434999000000001 -2.104301449999994 -1.2910538000000003
Zr 1.1283002 -2.7667007499999983 1.8455505000000016
Cu 3.074300299999999 0.7570953500000002 -1.1613465000000076
Cu 2.762898999999999 -0.6639022499999925 1.124153100000001
Zr -3.074300299999999 0.6493988499999972 0.5332488999999896
Cu -1.2794004 1.1750946500000055 -1.8839493000000118
Zr -0.8621000999999993 2.8106995500000096 1.2665481999999884
Zr 0.9965997000000009 2.6440964500000064 -1.8403473000000048
Cu 1.6006999000000004 3.162498450000001 0.7286529000000002
Zr 1.0482001000000007 0.24849704999999744 2.9913482999999985
Zr 0.3750996999999998 -0.036201449999992974 0.1977462999999915
