11

Zr 0.9725513499999963 -0.31884380000000334 -2.544349699999998
Zr -2.281351050000005 -0.5020485000000079 -2.181350699999996
Cu 1.1045513499999942 -2.113750500000002 -0.7558516999999938
Cu -1.4539508500000053 -1.518947599999997 0.4411469000000068
Zr 1.14975175 -1.5909461999999976 2.2965468999999956
Zr 2.561349849999999 0.40565109999999294 -0.38915249999999446
Cu 1.013948450000001 1.4697533000000007 2.0662460000000067
Cu -2.561349849999999 0.7480507000000003 0.2313460999999961
Cu -1.5421504500000012 -0.1606482999999983 2.544349699999998
Zr -0.14394945000000092 2.113750500000002 -1.1092529000000013
Cu -0.06505005000000352 0.18215559999999442 0.33594510000000355
