12

Cu -0.7562981000000022 -2.0514983499999992 -2.5944004499999984
Zr -1.2610969999999995 0.5895996500000003 -2.0497989499999996
Zr 1.8177985999999962 1.6543007500000009 -1.1002979500000016
Cu -0.46669390000000277 -2.459598549999999 -0.20609855000000366
Cu 2.738201100000005 -0.22269815000000293 1.0055026500000004
Zr -2.738201100000005 -1.4147987499999992 1.1250018500000003
Cu -2.1917991999999984 1.0774994500000012 1.971002649999999
Zr 1.9443015999999957 -1.7482985499999977 -1.1123981500000006
Cu 0.42319869999999327 -0.9572982499999974 2.5944004499999984
Cu 1.4704017000000036 1.9640999500000014 1.4921016499999986
Cu -0.29439930000000203 2.459598549999999 0.5112018499999955
Cu 0.1542014999999921 -0.2508010500000033 0.27250094999999774
