15

Zr -1.1391525999999956 -2.83221485 0.004100849999996825
Cu -2.633148200000001 -0.7349447500000008 0.1273994500000022
Cu -0.18795019999999596 1.3666348499999992 -2.284000350000003
Cu -0.4647521999999995 -1.3548550500000007 -2.660499550000001
Cu 1.9536514000000054 -1.5829047500000004 -2.3675002500000026
Cu 1.680252000000003 -2.601144750000001 -0.140201550000004
Zr -2.1230467999999902 2.83221485 -0.8517989499999992
Zr 1.711952200000006 2.7923150499999996 -0.9934005500000005
Cu -1.2289504999999892 -1.4906749500000003 2.274498050000002
Cu 1.92694860000001 -0.9518551500000005 2.453701149999997
Cu -0.1884536999999895 0.7913747499999997 2.660499550000001
Cu 2.633148200000001 -0.43671505000000055 -0.3983993500000018
Cu -0.40315249999999736 2.703915149999999 0.9031982499999991
Zr 2.1633528999999996 1.578835049999999 1.6516990500000013
Zr 0.06925199999999876 0.01808505000000027 -0.019302350000000246
