12

Cu -1.5438976000000082 1.0447997999999963 -2.0566501500000003
Cu -1.2945002999999957 -1.576702100000002 1.3313493500000009
Zr -0.6324977999999959 -2.5737990999999987 -1.0841503500000007
Cu 1.5797977999999944 -0.14379890000000373 -2.3069505500000007
Zr -2.9944018999999997 0.5283011999999978 0.15795035000000102
Cu 1.474702899999997 -1.3927002000000037 0.6722498500000009
Zr 2.9944018999999997 1.2663001999999999 -0.3082503500000007
Cu 0.666803399999992 1.9988975000000018 -1.2440500500000011
Cu -0.8848018999999994 2.5737990999999987 0.6451502500000013
Cu 1.1298007999999982 1.2611007999999977 1.774949050000001
Cu -1.4038982000000004 0.9013977000000004 2.3069505500000007
Cu -0.13830380000000275 0.5312003999999995 -0.0372496499999988
