15

Cu -1.0042018500000012 -2.5490495500000003 -1.6032504999999997
Zr -2.6661014499999993 -1.48109935 -0.10914990000000024
Cu 0.5413990500000025 -0.4556400500000004 -2.9415493
Cu 1.4000988499999991 -2.55034995 -2.077449800000002
Cu 1.5539990500000016 -2.24453995 1.0306510999999983
Cu 2.469801050000001 -0.03321954999999921 -1.4724503000000002
Cu -1.8456020500000037 0.1731498500000006 -2.291750000000002
Cu -0.8197994499999979 2.55034995 -1.174549100000002
Zr 1.5358982500000025 2.2332503499999996 -2.7668494
Zr 2.6661014499999993 2.49124985 0.30985079999999776
Cu 2.6266002500000027 -0.014350149999999395 1.6144504999999985
Cu -0.41760055000000307 -2.35264995 1.856450999999998
Zr -0.43490014999999715 0.07074995000000062 2.9415493
Cu -0.23750114999999994 2.33975005 1.9355506999999985
Zr 0.24249844999999937 0.25545004999999943 -0.13714980000000132
