14

Zr -0.7876492000000006 -2.8007011499999983 0.17560100000000034
Cu 0.7164516000000027 0.25099944999999835 -3.0173997999999997
Cu 0.4845486000000001 -2.016498549999998 -1.9579000000000022
Cu 1.1803492999999996 -2.534599250000003 2.1867991000000018
Cu 2.0994509999999984 -2.1110000499999977 0.12020019999999931
Zr 2.152849200000002 -0.05039975000000041 1.933102599999998
Zr -1.897749000000001 -0.24769964999999772 -1.842198400000001
Cu -2.152849200000002 0.5111008500000018 0.9310006999999985
Cu -0.06505019999999817 1.4891014499999962 2.2131013999999993
Cu -1.509950700000001 2.8007011499999983 0.42840099999999737
Zr 0.8133487999999964 2.227798449999998 -1.1209993000000011
Cu 2.0682506000000025 -0.14130015000000284 -1.1948995999999994
Zr -1.3601513000000018 -0.9959983499999971 3.0173997999999997
Cu 0.2435512000000024 -0.41460034999999706 -0.03249840000000148
