15

Cu -0.6070995500000009 -2.1883487499999994 -2.5258998499999983
Cu -2.2088985500000007 -0.5821476499999996 -2.452100750000003
Zr 0.8168010500000022 0.2817517500000015 -2.452398149999997
Cu 1.017301549999999 2.5305500499999987 -0.2985973499999979
Cu 0.45120045000000175 -2.5305500499999987 -0.2145976499999982
Cu -1.6854992499999994 -2.0810489499999996 1.8967991500000032
Zr -3.056798950000001 1.090353050000001 0.05870245000000196
Zr -2.7897014499999955 -2.0366496499999975 -0.5436000499999984
Zr 3.056798950000001 0.42325014999999766 -0.10209845000000328
Zr 1.4973010500000044 -1.9129504500000003 2.0918026500000018
Cu 1.1062984500000042 1.2273503499999983 2.0625019500000015
Cu -1.219697949999997 0.08234975000000233 2.5258998499999983
Cu -1.0967998499999965 2.471151349999996 -1.65989875
Cu -0.5563984499999961 2.116151849999998 1.0520000500000002
Cu 0.13860125000000068 0.1390514500000002 -0.04490085000000121
