16

Zr 1.4092484000000027 -2.614950099999998 1.6178989000000037
Cu -2.399349200000003 -0.9510517000000043 2.220899599999999
Cu -2.7330512999999996 0.23114969999999957 0.23480029999999985
Cu -0.3942489000000009 -0.47535130000000336 -2.3907986
Zr -1.9228516000000013 -2.690851200000001 -0.44069860000000105
Cu 2.7330512999999996 -1.7752513999999984 -0.21850009999999642
Cu 0.4980507000000003 -2.303251300000003 -1.5010013999999963
Cu 2.0397491000000016 -0.14335060000000155 1.5599995
Zr -2.004852300000003 1.7688503000000004 -1.628698400000001
Cu -1.4356499000000014 -3.0305500000000016 1.964601500000004
Cu -0.3078499000000008 -0.6166514999999997 2.3820020000000035
Zr 1.9959488000000007 0.6926479000000008 -1.1798991999999977
Cu -0.7797508000000022 3.0305500000000016 0.28869820000000246
Zr -1.712150600000001 1.6860485000000018 2.3907986
Cu 1.5969505999999996 2.2312489000000006 1.0133991000000044
Cu -0.4636496999999977 -0.22305110000000283 0.3113995000000038
