11

Zr -1.42232475 -2.4906501500000005 0.1884508500000024
Cu 2.1264852499999995 -0.27745065000000224 -1.9861497499999992
Cu -1.1211448499999999 1.5495490499999995 -1.7615499499999991
Zr -0.46966514999999953 -1.3962497500000026 -2.46185015
Zr 2.3044551500000003 -2.313650150000001 0.18764975000000206
Zr 1.8182748499999994 0.09255024999999861 2.46185015
Zr -1.30826485 -0.10034944999999951 2.2620496500000016
Cu -2.68349495 -0.32584955000000093 -0.06484885000000062
Zr -0.2542249499999998 2.4906501500000005 0.5484495500000008
Cu 2.6834949499999996 1.7272490499999975 -0.5462503499999976
Cu 0.2317952499999998 0.011650050000000078 -0.08444884999999758
