16

Cu -2.1230002 -2.162498499999998 -0.6197996000000003
Cu 0.6731996999999978 -2.723400099999999 1.2450989999999997
Zr -0.4173001999999997 -2.067600299999995 -2.3611003000000004
Zr 2.5262995000000004 -2.056499500000001 -1.1047010999999998
Cu 2.1764002 -0.6851996999999983 1.3871012
Cu -3.0409994000000005 0.1090011000000004 -0.15899950000000018
Cu -2.7011995000000013 -0.32479860000000116 -2.4049998000000024
Zr -1.5875997999999996 2.723400099999999 0.3014992999999997
Cu -0.9471007 1.5404014000000004 -2.358399500000001
Cu 1.309399599999999 -0.037998199999996984 -1.9621993000000018
Cu 0.7591009 2.276199300000002 -0.500599900000001
Cu 3.0409994000000005 0.9403000000000006 -0.5926007999999996
Cu 0.14919949999999815 1.1603011999999993 2.2192010000000018
Cu -1.4287996000000014 -1.8354987999999963 1.7459992999999976
Cu -2.2594002999999994 0.8473015000000004 2.4049998000000024
Zr -0.3287993 -0.12889859999999942 0.12530040000000042
