13

Zr -1.022449550000001 0.4071540999999925 -2.5685500999999995
Zr -2.6556511500000006 -0.7026482000000058 -0.3007488000000009
Zr -2.3205490500000003 0.41175460000000186 2.5685500999999995
Cu -0.6590500500000012 -2.3025474999999958 0.8289508999999988
Cu -0.03765115000000563 -0.3175469000000035 2.2938499000000014
Cu 1.158649350000001 2.3513526999999996 -0.8883495000000003
Zr -1.5503502500000046 2.4850501999999963 0.15425109999999975
Cu 0.4387511499999981 -1.7885476000000082 -1.3934498000000026
Cu 1.5859488499999976 -2.642650600000003 1.3813496
Cu 1.8224486499999948 0.27665329999999955 -1.7690506
Zr 2.6556511500000006 0.7568549999999945 1.5668506999999998
Cu 0.47024914999999723 2.642650600000003 1.7110500000000002
Cu 0.16524874999999994 0.1945533000000026 0.12395090000000053
