11

Cu -0.26475145000000566 2.718399999999999 0.10815045000000367
Zr -1.2568511500000028 -0.9117995000000008 -2.4645500499999997
Cu 2.2650489500000006 -1.7888993999999983 -0.25624845000000107
Zr 1.5915489499999964 0.7160004999999998 -2.4484481499999973
Zr -1.1807479500000042 2.4311989999999994 -2.399547550000001
Zr -0.23085025000000314 -2.718399999999999 0.014751449999998556
Zr -2.32474895 -0.0843001000000001 0.7293510499999982
Cu -1.3464507500000025 1.7595987000000015 2.4645500499999997
Zr 2.32474895 1.5299005 0.5886497500000019
Zr 0.942550649999994 -0.7067996000000001 1.8801498500000022
Cu 0.07884974999999628 0.09150029999999987 -0.2534484500000005
