13

Cu -2.516689800000001 -1.6088485499999976 -0.38455199999999934
Cu 1.9837102999999994 -0.8222502499999962 -0.874450699999997
Zr -0.42024990000000084 -2.9772491499999987 -0.9486503999999982
Zr -0.017609600000001002 0.28155135000000087 -2.7806511
Cu -2.1928401000000006 2.050250949999999 -1.5661506000000003
Zr 0.67171 2.9772491499999987 -0.7364502000000002
Cu -0.22562020000000071 -2.355251349999996 2.0662498000000014
Zr 2.1403103000000003 -1.4022483500000007 1.8183478999999991
Cu -2.3495102 -0.5481491500000004 2.1042480000000054
Zr -2.68081 2.198451949999999 1.399250000000002
Cu 2.68081 1.0018501500000028 0.7869491000000011
Zr 0.2985698000000001 0.9157485500000035 2.7806511
Zr -0.3632698000000003 0.18605035000000214 0.28265000000000384
