12

Cu 1.1429004500000008 -1.0253009499999983 -2.577846550000004
Zr 0.8955002499999996 -2.491701150000001 -0.7024497499999995
Zr -1.9477996499999986 -1.6669978499999978 -1.5512503500000037
Zr 0.49670034999999935 1.5180988499999977 -2.729152650000003
Cu -1.7306995499999989 2.0706997499999993 -0.6003455500000001
Cu 2.5433998499999984 0.6825008500000003 -1.2342491499999966
Cu 0.7775001499999998 2.491701150000001 -0.12965015000000335
Cu -0.27499954999999865 -1.9390010499999981 1.7669487499999974
Cu 2.196800250000001 -0.7722987500000009 0.9379539499999936
Zr -2.5433998499999984 -0.3566989499999984 0.9583473499999968
Zr 0.7004013500000017 0.9507007499999993 2.729152650000003
Cu 0.03960045000000001 0.1675014499999996 -0.38325115000000665
