13

Cu 0.14589880000000122 2.49526482000001 -0.2236481000000019
Zr 1.092498899999999 0.31693758000000116 -2.722351100000001
Cu -0.5262011999999991 -2.4952648200000027 -0.610149400000001
Cu -2.6569004000000014 -0.5566586199999932 0.4336510000000011
Cu 2.1142007000000014 1.40003698000001 1.1621513000000014
Cu 2.6569004000000014 2.2455416800000023 -1.0932502999999976
Cu -1.3453997999999991 1.0103350800000044 -1.0655517000000039
Cu -2.1592997999999994 -0.5892590200000001 -2.483150499999997
Cu -0.697200800000001 -1.682063020000001 1.6134491000000004
Cu 0.8339004999999986 0.29943578000001025 2.722351100000001
Cu -0.9479007000000017 1.2586413800000003 1.9052505999999987
Zr 1.7926998000000012 -1.7779645199999976 0.37805179999999794
Cu 0.4027996000000016 0.1776400800000033 -0.10575100000000148
