17

Cu -0.577162009999995 -0.05826970000000076 -2.2691021000000013
Cu 1.419687990000007 -1.7511598999999998 -1.640401899999997
Cu 3.05214809000001 -1.4774695999999996 0.6486988000000018
Cu 1.5380781900000073 0.1486298999999991 -3.0809993999999996
Zr -3.052148090000003 -0.15697029999999979 -0.7273006999999971
Cu -1.6075450900000021 2.7325303999999995 -1.1448993999999963
Cu 2.0146677900000043 1.7359301999999999 -1.4063015000000014
Zr 0.9292380900000055 -2.9873302 1.8372974000000006
Cu -0.7686619099999916 -0.7266400000000002 3.0809993999999996
Cu 2.2691180900000063 -0.23967000000000072 2.407300899999999
Cu -1.039544289999995 -2.1585495 -1.1002025999999994
Zr -2.1347437900000017 -2.264340200000001 1.6081980999999992
Cu 0.777447990000006 1.3326299999999995 2.9769992999999992
Cu 2.9652879900000073 1.1777303999999993 0.8194981000000006
Cu -1.0139476899999949 2.9873302 1.2508982999999994
Cu -2.2606441899999936 0.4159295999999997 1.7133999000000024
Zr 0.26560809000000773 -0.03506969999999976 0.3456974000000024
