16

Zr -2.269300499999998 -1.933502149999999 -0.28130339999999876
Cu -0.25460059999999807 -2.5046004500000016 -1.799499499999996
Cu 0.798799500000003 -2.382900150000001 0.2747954999999962
Cu -0.46080019999999955 -2.5820007500000024 1.8679962000000074
Cu -2.3894997 0.8437004499999965 -0.5041045999999909
Zr -1.0776004999999973 -0.04970154999999821 -2.700401299999996
Cu 1.4731999000000027 1.1937980500000016 -1.6697997999999927
Cu -0.5037003000000002 1.9716988499999992 -0.39289850000000115
Zr -2.6359005 0.2221985499999981 2.3330002000000007
Zr 2.1826000000000025 -1.9159011499999998 -1.5872039999999998
Cu 2.6359005 -0.2687987499999984 0.8352966000000066
Cu 1.973499300000002 -2.353500350000001 2.3106003000000044
Zr 0.5488986000000029 -0.18849944999999835 2.700401299999996
Zr -0.5979002999999974 2.5820007500000024 2.2694015000000007
Zr 2.0529995000000003 2.3488998499999987 1.0459976000000069
Cu -0.10210039999999942 -0.12639995000000326 0.27709959999999967
