11

Cu -1.5433502999999966 -1.4243983999999976 -1.5035514000000063
Zr 0.40634910000000346 0.15659899999999638 -2.512248999999997
Zr 2.5265503000000002 -1.4844990000000031 -0.6009558000000084
Zr 1.9818497000000015 1.147298799999998 1.3625449999999972
Zr -2.0692482000000005 1.3629016999999983 -1.3337517000000076
Cu 0.25564950000000053 2.482301699999997 -0.8801535999999999
Zr 0.03934860000000029 -2.482301699999997 0.5559501999999981
Zr -2.5265503000000002 -0.2124004000000035 2.400051199999993
Cu 0.25585170000000446 -0.41570090000000093 2.512248999999997
Zr -0.9792518999999977 2.190999999999999 1.5297508000000022
Cu -0.17375189999999563 0.09219930000000076 0.150348699999995
