14

Cu -0.2604007500000023 -1.2009505999999988 -2.522850049999999
Cu -2.651300450000001 -1.9199523999999997 -1.7239494499999992
Cu 1.499601350000006 -1.9263533999999964 -0.6852493499999994
Zr -0.7382983499999938 -3.082847599999994 0.2975501499999993
Cu -1.5097980500000006 2.1895523999999966 0.3054504499999986
Zr -2.9430980500000032 1.0747527999999988 -1.8043499499999989
Zr 1.2367992500000042 3.082847599999994 0.1230506499999997
Zr -0.3220996499999984 2.6457520000000017 -2.2638491499999986
Cu -2.4143009499999977 -0.40615080000000603 0.8998489499999991
Cu 0.8091030500000045 -1.4270477000000028 1.774149050000002
Zr 2.9430980500000032 0.34635160000000553 0.06785005000000055
Cu 1.3164043499999991 0.6126480000000072 -2.049650249999999
Zr 0.06059835000000646 0.9334488000000079 2.522850049999999
Cu -0.12300295000000006 -0.07454679999999314 -0.5889492499999989
