11

Zr -1.8804501999999985 -1.569847100000004 -2.3231506499999988
Cu 1.2580500000000008 -1.7185515999999978 -1.966148350000001
Zr -0.9882497999999984 -2.442649799999998 1.1754493499999974
Cu -1.0762509999999992 1.6294479999999965 -1.3802490499999998
Cu -2.7519503000000007 0.13024910000000034 -0.05875014999999806
Cu 1.934050599999999 -1.3570479999999918 0.4298516499999998
Cu -1.247250600000001 2.442649799999998 0.8433494500000016
Zr 1.2426500000000011 2.3467483000000016 -0.39204785000000086
Cu 2.7519503000000007 0.4893494000000089 -2.208850850000001
Zr -0.368550299999999 0.3888550000000066 2.3231506499999988
Cu -0.3202505000000002 -0.007545499999991989 -0.2527504499999971
