14

Cu -0.9900007500000001 -2.8117003999999994 -0.400144650000005
Cu 0.5894994500000017 -1.0652004000000002 -1.4942455500000058
Zr -0.2510004499999994 1.4478001000000003 -3.114549649999997
Cu 1.9716005500000016 0.968699899999999 -1.5004482499999945
Cu -1.9399996500000007 -1.6779799999999998 2.2653521499999947
Cu -2.7391004499999987 -0.9249998000000001 -0.7884503499999944
Cu 2.286700249999999 -1.3457103000000004 0.13424864999999997
Cu 0.44290074999999973 -1.2411896000000002 2.526254550000001
Zr -2.2475004500000004 1.0760997999999997 1.470453250000002
Cu -1.6239004500000007 1.4099000999999998 -1.0898495500000003
Cu 0.7398995500000005 2.8117003999999994 -0.026548449999996393
Zr -0.10389994999999885 1.2784999999999993 3.114549649999997
Zr 2.7391004499999987 1.1786998999999998 1.3028506499999928
Cu 0.19419955000000044 0.46700039999999987 0.23045534999999617
