13

Cu -2.5260009500000002 0.676249949999999 -0.38814920000000086
Zr 0.6450996499999953 -1.167149049999999 -2.900051099999999
Cu -1.5949020500000053 -1.989250649999999 -0.8490486000000033
Cu -1.8577003500000053 0.9621500499999982 -2.674747400000001
Zr -1.67800145 -1.2665505500000016 1.6596490000000017
Zr 0.21640024999999596 2.36074975 -1.2209511000000077
Zr -1.12170025 2.107249750000001 1.4756507999999968
Zr 2.5260009500000002 -1.205750049999999 0.15565110000000004
Cu 2.3372993499999986 0.7919497500000006 -1.7539482000000106
Cu 1.910400450000001 2.1551508499999983 0.6858481999999952
Cu 0.9744987499999986 -2.36074975 1.8529549000000003
Zr 1.2200012499999993 0.5937496499999995 2.900051099999999
Cu 0.04990005000000153 -0.04525045000000105 0.12025069999999971
