13

Zr -1.678251300000003 0.35360339999999724 -2.446849799999999
Cu -1.4339504999999981 -1.4613990000000001 -0.4431495999999946
Cu 1.696649500000003 2.5462989999999905 -1.1375503999999985
Zr 1.433450599999997 -2.282001500000007 -1.0191497999999974
Cu 1.3965473000000053 0.16960530000000063 -2.672649400000001
Cu -1.3172512999999988 2.4723015000000004 -0.990749399999995
Zr -2.3120518000000025 1.0328025999999966 0.7310486000000047
Cu 2.3120518000000025 0.038898500000001945 -0.3020515999999951
Zr -0.3723507000000019 -2.5517006000000038 1.7224502000000008
Cu -0.677152699999997 0.19820029999999633 2.672649400000001
Cu 2.077348699999998 -0.002300200000007635 2.2381515000000043
Zr 0.5471514999999947 2.5517006000000038 1.5732498000000028
Cu 0.2663516000000037 0.45050429999999153 0.2146492000000002
