15

Zr 0.16959950000000035 -1.3729496000000019 -2.959301
Zr 1.2558994000000006 -2.881549800000002 0.09989929999999347
Zr -1.5215014999999958 1.3592490999999995 -2.527500100000001
Cu -2.776800099999999 -0.7138500000000008 -1.1447983000000015
Zr 1.5218983000000001 2.2664490000000015 -1.872898100000004
Cu 2.374597600000005 -0.44574929999999924 -1.9581985000000053
Cu -0.6353015999999947 2.881549800000002 -0.009597800000005208
Cu -1.289701499999996 2.557548500000003 2.1016998999999963
Cu -1.3868006999999984 -2.4412498000000014 0.5624999999999964
Cu -2.775602299999999 1.588050899999999 0.22130209999999906
Cu -0.3657016999999989 0.2281493999999995 2.959301
Cu 2.7437001000000016 0.10765079999999827 0.5376014999999974
Cu 2.776800099999999 2.1966515000000015 0.24230199999999869
Cu 1.2278004000000031 1.6244507000000006 2.027999899999994
Zr -0.23600190000000154 0.21875 -0.012798300000003593
