13

Zr 0.2714748999999994 1.2747993000000015 -2.741050750000003
Zr -0.18304539999999925 -3.1484984999999988 -0.47684855000000326
Cu -2.6970948999999997 0.7471008000000019 -0.7650489500000042
Cu -1.5556349000000003 -0.9654999000000011 -1.9352492500000018
Zr -2.0568150999999997 2.1689986999999995 1.0528488500000002
Cu 2.3867951000000005 -1.8973999 0.9964485500000002
Zr 0.2658252999999995 2.1763992000000023 2.741050750000003
Zr 2.2325955000000004 -1.414901799999999 -1.9742507499999995
Cu 0.1658450000000009 3.1484984999999988 -0.3418502500000038
Cu 2.6970948999999997 2.0489998000000007 1.2248497500000006
Cu -1.9368847999999996 -0.3131980999999975 1.854248049999999
Zr 0.31484509999999943 -1.4322014000000003 2.452552849999993
Zr 0.04447460000000092 0.24039840000000012 0.07564934999999551
