14

Zr 1.287849350000002 -2.204350449999998 -1.9640026500000047
Cu -1.957450950000002 -0.9414491499999986 -2.0643025500000007
Cu -0.12245184999999736 -2.3399495499999983 1.1760997499999988
Cu 2.2211493500000046 1.2775507500000014 -0.19840045000000117
Cu -1.1682511499999961 -3.0244493499999994 -0.6145000500000037
Cu 0.7560500499999989 -0.5707501500000003 2.8603001500000005
Cu -2.3661498499999993 -0.4192494500000006 0.5904979499999996
Zr 2.3661498499999993 -1.3560494499999987 0.5486964499999942
Cu 1.9478491500000032 0.2605505499999996 -2.3773022499999996
Cu 0.680450350000001 3.0244493499999994 -0.6702023500000038
Zr -0.7646485499999969 2.0868502499999995 -2.8603001500000005
Cu -1.5934487500000003 2.273650250000001 -0.2090016500000047
Zr -0.0586510500000017 1.4560499500000024 1.599798149999998
Cu -0.02185064999999753 -0.19274994999999784 -0.6524029500000026
