12

Zr -1.9077491500000008 -0.5431976500000104 -2.8027000499999986
Cu 0.2852516499999993 -2.2898025500000045 -1.6427002499999972
Zr 0.21435174999999873 2.3171997500000003 -1.6650009499999996
Zr -2.199649749999999 -2.3171997500000003 0.1499976500000031
Zr -0.8540496500000003 -1.4974976499999997 2.8027000499999986
Cu 2.524250049999999 0.44349665000000016 -0.7760010499999979
Cu 0.9073524499999976 -0.1782989499999985 -2.436302249999997
Zr 1.7659492499999985 -1.8051986500000083 0.7463988499999985
Cu 1.7010498499999969 1.049499449999999 1.0904006499999994
Cu -2.524250049999999 0.9962997499999915 -0.9463997499999977
Zr -1.0819511500000019 1.9776000499999924 1.2145995500000026
Cu -0.08435055000000347 -0.09819794999999942 -0.3083991499999996
