14

Cu -0.49365044999999874 -1.0335006 -1.9500998999999979
Zr -1.8779486499999987 2.1423987999999987 -1.3872032000000019
Zr 1.0812511500000017 1.816299499999996 -2.443698900000001
Zr 1.9770508499999995 -1.3703003000000002 -0.5517006000000038
Zr -0.09854884999999847 -3.1501999000000005 0.651897500000004
Cu -2.5249500499999993 -0.11920160000000024 -1.8909034999999932
Cu -1.291450450000001 -0.3081016000000041 2.443698900000001
Zr -2.6138496500000006 -1.2327995000000023 0.2796974000000034
Cu 0.3745498499999993 1.554397599999998 1.8539008999999993
Cu -2.376150149999999 1.5448989999999974 1.3916968999999995
Cu 1.0395507499999983 -0.7024002000000031 1.778194499999998
Zr 2.6138496500000006 1.3001975999999935 -0.05760569999999632
Cu 0.7155494499999993 3.1501999000000005 -0.22660439999999937
Cu -0.5408496500000002 0.3148994999999992 0.027698499999999626
