13

Zr -0.284479189999999 -1.7262516000000012 -2.037401150000001
Zr 1.4743756900000093 1.0696505999999992 -2.700201049999997
Cu -0.7171802900000017 -2.2000484999999976 1.4358997499999973
Cu 1.1775054900000086 -2.6765499000000013 0.22010234999999767
Cu 2.4210757900000104 -0.4306506999999975 -0.1690005499999998
Zr 1.4629253900000094 -0.6887493000000013 2.536802350000002
Cu -1.052575989999994 1.1764507000000002 -1.5553989499999972
Cu 0.41681579000000823 2.6765499000000013 -0.3048991499999971
Zr -2.4210757900000033 -1.4041499999999978 -0.057599949999996625
Cu -1.6789798899999937 1.7214489000000022 0.8304996500000001
Cu -1.5365772899999968 -0.3525486000000022 2.700201049999997
Zr 0.8193855900000102 2.520849199999997 2.47590065
Cu -0.028274509999988595 -0.051851299999999156 0.17400175000000218
