13

Zr 1.5606002500000002 -1.3817699500000002 -2.3078498999999937
Cu -2.7439994500000005 -1.2582298500000002 0.24934770000000128
Zr -1.5268001499999997 -1.63227995 -2.8844490000000036
Cu 0.800699250000001 0.35355004999999995 1.9087485999999956
Cu -0.04640004999999903 -2.4272800500000002 0.06525039999999649
Zr 2.7439994500000005 -0.6318801499999998 0.24395370000000582
Cu 1.756500250000002 -2.12609995 1.8490486000000033
Cu -0.09510034999999917 0.6817699499999996 -2.7677498000000043
Cu -2.13299945 1.2353602500000003 1.0156517000000065
Zr 0.45909885000000017 2.4272800500000002 -0.19375229999999988
Zr -2.6000003499999984 1.0238000500000002 -1.6624489000000011
Zr -1.4412002499999979 -0.5652798500000005 2.8844490000000036
Cu -0.23380084999999795 -0.034200049999999926 -0.03705209999999681
