15

Cu -1.0324476999999952 -1.4876022000000049 -2.5007991500000006
Zr 0.9721526999999988 0.47959900000000033 -2.9963989500000014
Cu -1.8186493000000006 1.4419021999999941 -2.667099049999999
Cu 0.878650700000005 -1.901199300000009 -1.854099249999999
Cu -1.7700500999999953 -2.585601799999999 0.3281021500000012
Cu 0.9797517000000049 -2.3852005000000034 0.5101013500000011
Cu -2.7356491 -0.03540029999999916 -0.8555984500000005
Cu -2.7472496 0.21589669999999472 1.4708023500000014
Zr 0.1392516999999991 1.4024963999999969 2.9963989500000014
Cu -0.7749480999999996 -1.4072036000000097 2.4132995499999996
Zr -1.929348000000001 2.585601799999999 -0.025199849999998136
Zr 2.7472496 -0.225898700000009 -0.3484992500000015
Cu 1.7055511000000045 -0.7946014000000119 2.1132011499999965
Cu 0.8814506999999985 2.0574035999999936 0.5849990500000022
Zr -0.13114930000000058 -0.1788025000000104 0.05329895000000029
