11

Zr -0.49914924999999855 -0.8393650500000001 -2.72599985
Cu -1.02544975 1.7116851499999997 -1.77529995
Zr 1.8612499500000013 -0.7936148500000004 1.5749999499999996
Zr -0.12454985000000107 -2.37718485 -0.4428996500000002
Cu -2.0723495499999984 -0.1855049499999999 -0.2646999499999998
Cu 1.609849950000001 2.3771848500000003 0.8866996499999997
Cu -2.212450050000001 1.77063515 0.7202005499999986
Zr -1.5004500500000013 -1.52286485 2.3748998499999994
Zr 2.212450050000001 0.01169534999999966 -1.347000050000001
Cu -0.58034885 1.1328749500000002 2.72599985
Cu -0.05024905000000146 0.4474749499999997 0.11100004999999857
