17

Cu -1.985752099999992 -1.4772491500000022 -2.1767026000000023
Zr -1.9862556999999939 -2.5073509499999993 -0.002401400000000109
Cu 1.0018501000000057 -2.4886474499999984 -1.5960027000000032
Cu 0.7280464000000038 -0.5700493500000015 -2.785303200000005
Cu -3.0915488999999994 0.11685184999999976 -0.4412022000000029
Cu -1.3708534999999884 0.9946517499999992 -2.971101800000003
Zr -1.8919562999999968 1.1111488500000029 1.6711978000000052
Zr -1.805553499999995 2.5073509499999993 -0.6897030999999991
Cu 0.8931465000000074 2.5062522499999993 1.328195499999996
Cu 2.4581489000000047 -0.1859474499999969 -1.7243024000000027
Zr 1.1011467000000081 2.4127502499999984 -1.5639020000000023
Cu -1.5111503999999982 -1.1632499499999973 2.766695000000002
Cu 0.296443900000007 -2.2290496499999968 1.791894899999992
Zr 0.6760444000000021 0.29385004999999964 2.971101800000003
Cu 2.3624458000000104 -1.5511474499999984 0.42939939999999766
Zr 3.0915488999999994 1.4102515500000017 0.7627962999999944
Zr 0.19144830000001178 -0.11784745000000285 -0.03160280000000526
