14

Zr -0.733745600000006 -2.728301949999995 -1.5609512499999987
Cu -1.7051506000000103 1.8412017500000033 -0.1082496500000012
Cu -0.7492485000000073 -0.2520981500000019 -2.646949750000001
Cu -0.8932457000000085 2.0948028500000007 -2.496650649999996
Zr 2.1159476999999924 0.5597991499999964 -2.3230514499999977
Cu -2.3779487999999986 -0.6132965500000083 -0.11285014999999632
Zr -1.2283516000000105 0.8033980499999913 2.361148850000003
Cu -1.0025520000000085 -1.7573013499999988 1.484149949999999
Cu 1.6045493999999962 -2.1551971499999993 0.19594955000000525
Cu 2.3779487999999986 0.2916030499999991 0.323448250000002
Cu 0.9151497000000006 2.0660018499999993 1.528747550000002
Zr 1.168849999999992 -0.8339005500000027 2.646949750000001
Cu 2.0149497999999966 2.728301949999995 -0.7370529499999954
Cu -0.11704640000000666 -0.024597250000006454 -0.1793517499999986
