13

Zr -2.7298507500000007 0.05389780000000144 0.26545145000000403
Cu -1.5156496500000003 -2.4658012000000014 -0.4432506499999995
Cu 1.15704925 -1.6400985999999946 -0.9545498499999958
Cu -0.5958499500000016 -0.9864997999999972 -2.4554500499999996
Cu 2.532949549999998 -0.3707999999999956 0.6264514500000011
Cu 0.7314491499999995 0.824501000000005 -1.602949149999997
Zr -1.7955493500000017 1.6161995000000005 -2.4192485499999954
Cu -0.23645014999999958 2.2971001000000015 -0.038850849999999326
Zr 2.7298507500000007 2.4658012000000014 0.06094925000000373
Cu -1.2172508499999992 1.1451988000000028 2.2858485500000008
Zr -0.8640498500000007 -2.406398799999998 1.8640499500000054
Cu 0.8929500499999996 -0.21229929999999797 2.4554500499999996
Cu 0.13455014999999904 -0.012599999999999056 0.17104905000000414
