12

Zr -1.8623466499999992 2.262649500000002 -1.5515499000000004
Cu 0.2705497499999936 -2.3271485 -1.611849799999999
Cu 0.8611564500000028 0.12205120000000136 -2.7342500999999997
Cu -1.6666450500000067 -0.5289497999999995 -2.2966498999999994
Zr -2.711750049999999 -1.8182487999999992 0.06305040000000073
Cu -2.0766486500000028 1.3916511000000042 1.1199503000000002
Zr 0.24724964999999344 1.1917496000000014 2.147150000000001
Zr 2.711750049999999 -0.4284515999999954 -0.834649999999999
Cu -0.8491478500000014 -1.1303482000000002 2.7342500999999997
Zr 1.4210548499999973 -2.0848502999999994 1.545749700000001
Cu 0.6209526499999996 2.3271485 -0.30654999999999877
Cu -0.2100486499999974 -0.557147999999998 0.09134960000000003
