14

Cu -0.8426991000000044 -2.5568008000000013 -1.8337001499999985
Cu -0.806798999999998 0.28870010000000335 -2.734600050000001
Cu 1.000200299999996 -0.7194977000000016 -2.568399450000001
Zr -1.7604007999999993 -2.0615005999999987 0.4668998500000008
Zr 0.9818973 -1.3886986000000014 2.4813003500000015
Cu 1.0703983000000008 -2.428501199999996 0.2150001500000016
Cu 3.0534000999999975 -1.1755981999999996 -1.115400349999998
Cu -3.0534000999999975 1.1249008000000025 -1.134399349999999
Cu 0.07369800000000026 2.5568008000000013 0.4430007499999995
Cu -1.7896022999999985 0.5986021999999984 1.3292999499999993
Cu 1.2203006000000016 2.370700799999998 -1.5648002500000011
Cu 0.8915995999999993 1.2951011000000001 2.734600050000001
Cu 2.055700299999998 2.5487021999999975 0.6996002499999996
Zr 0.20739929999999873 0.17860030000000293 -0.2992992500000007
