14

Cu -0.42335124999999607 -1.2513504499999968 -2.432399750000002
Zr -2.3808479500000033 0.5912513500000003 -1.7800026500000001
Zr -2.2826499499999926 -0.08425144999999645 2.04469675
Zr -1.6043510499999911 -2.7084503499999997 0.2626991500000031
Cu 2.543949150000003 1.281848850000003 -0.9892997500000007
Zr 0.11055375000000822 2.0984497500000003 1.8785972499999986
Cu 0.34685135000000855 0.7306480499999992 -2.9846992500000056
Cu 0.4707527500000026 -2.1891517500000006 1.462200150000001
Zr 1.844448049999997 -1.3742485499999972 -1.0534019499999943
Cu 2.4114494500000063 0.05625154999999893 1.307796449999998
Zr 0.09375375000000474 2.7084503499999997 -0.9833030500000035
Cu 0.15725324999999657 -0.5048484499999972 2.9846992500000056
Cu -2.543949150000003 2.2839507500000025 0.14680094999999937
Cu -0.21764754999999525 -0.08905024999999966 0.19969555000000128
