12

Zr 0.20104979999999983 -2.3207492999999992 2.6592025999999933
Cu 1.7707519000000005 -0.5855503999999989 1.8783034999999941
Zr -0.6820449999999951 0.46724889999999775 -2.697601299999995
Zr 1.504653900000001 -2.0394497000000023 -0.8519973999999948
Cu 0.04444880000000495 1.1732502000000018 2.697601299999995
Zr -2.5593490999999986 -2.310548800000003 -0.07430269999999695
Cu -2.2904511000000056 -1.3907490000000031 2.430900599999994
Cu -2.444351300000001 1.254049300000002 2.126800600000003
Cu -2.514747699999994 1.5992488000000016 -0.3897018999999986
Cu 0.5097503000000003 2.3207492999999992 -0.17590329999999454
Cu 2.5593490999999986 0.5335482999999961 -0.44239809999999835
Zr -0.6176452999999995 -0.11445050000000023 0.0518035999999924
