13

Cu -0.9264685900000131 -3.0408497499999996 -0.38945010000000124
Zr 2.124047990000001 -1.4082508500000017 -1.6675490999999987
Cu 0.19453360999999347 -0.18625074999999924 -3.0747490000000006
Cu 2.5608679899999984 1.5077495499999998 -0.5507506999999983
Cu -2.2143637900000073 -0.9368496499999992 -1.9625511000000024
Zr 0.8040306099999981 -2.3276501499999966 1.803848200000001
Cu -2.5608679900000055 1.1534480500000015 -0.9821510999999994
Zr -2.493363190000011 -0.8980502499999972 1.1240501000000016
Zr 0.5539316099999922 3.0408497499999996 0.733650199999996
Cu 0.1408379099999877 2.6604480499999994 -1.591548900000003
Zr 2.235457789999998 0.05275155000000353 1.4390487999999984
Cu -0.19856329000000983 0.5297488500000043 3.0747490000000006
Zr -0.3457648900000123 0.29765125000000126 -0.22814940000000306
