13

Cu -0.768299099999993 -1.7529486999999975 -2.1601298
Zr -2.243404400000003 -2.139247900000001 0.8699104999999996
Zr -2.936000800000002 -0.39374910000000085 -0.8873698999999995
Zr -1.4906043999999952 2.139247900000001 -0.0435301999999993
Cu 1.817600200000001 -1.8891486999999998 -0.3573194999999991
Cu 0.6975975000000005 -1.6690483 1.6063101
Cu -1.3200034999999986 0.7548484999999943 -2.73611
Cu 1.9223975999999965 -0.2934494000000001 -2.3277998999999996
Cu 0.701396900000006 2.0900536000000045 -1.3469999000000001
Zr 2.936000800000002 0.3359489999999994 0.08245969999999936
Cu 1.0238991000000084 1.4022484000000048 1.3829100000000007
Zr -1.0898018000000036 0.00595090000000198 2.73611
Cu 0.03770060000000797 -0.19585039999999765 -0.48289940000000087
