14

Cu 0.7973002999999963 -0.7755012000000008 -2.23365025
Cu -3.013498300000002 -1.0472983999999954 0.06895055000000028
Cu -0.8029003999999986 -2.418399700000002 -0.7061501500000027
Zr -1.8490010000000012 -0.28090289999999385 -2.0455475499999984
Zr -1.6448003 -0.7663001999999963 2.23365025
Cu 0.08889959999999775 -2.574901599999997 1.7744521499999983
Cu 1.635999599999998 -0.9163016999999982 1.864852850000002
Zr 1.8855991000000003 -2.7040976999999984 -0.31484994999999927
Zr 0.45659820000000195 1.8260993999999968 -2.0587502499999992
Cu -2.294198999999999 1.7262000999999927 0.5918501500000026
Cu 1.0692005000000009 2.7040976999999984 0.2441520500000003
Zr 3.013498300000002 0.6483040999999972 -0.032547050000001576
Cu 0.17149919999999952 1.6367988999999952 1.8174514500000036
Cu 0.28890030000000166 -0.5013006999999945 0.2645492499999982
