16

Zr 2.219848550000009 0.023346099999997705 1.832996350000009
Cu 0.24154655000000957 1.8277512000000087 2.8165016499999993
Cu 1.7066497499999969 0.5006485000000112 -2.492603249999995
Cu 0.5415496500000074 -1.4226531999999992 -2.8165016499999993
Cu -1.448753350000004 2.299652100000003 -2.104900350000001
Cu -1.9358521500000023 -0.9070510999999897 -1.4033012499999913
Cu -1.4835510500000026 -2.2785492000000005 0.6256981499999981
Cu -2.8916473499999995 0.9367524000000031 -0.41970445000000467
Zr 0.986450149999996 -2.587249700000001 2.1471977499999966
Zr -1.7300491499999993 -0.2067488999999938 2.2095985500000026
Cu 0.45944975000000454 -2.7719498000000016 -0.7580985499999926
Cu 2.506050049999999 -1.3340529999999973 -0.6959037499999923
Zr 2.8916473499999995 2.2938462000000044 -0.4833030499999964
Cu 0.7026519500000035 2.737449699999999 -1.6176032499999948
Zr -0.7575531499999926 2.7719498000000016 0.5727958499999986
Zr 0.2640456499999999 -0.02375029999998901 -0.2044029499999951
