11

Zr 0.07274625000000157 2.1665496499999968 -2.0502650499999997
Zr 0.14654544999999786 -2.3493499500000006 -1.1469953499999996
Cu -0.8767547499999964 -0.4184493499999995 -2.40001515
Cu -2.061950549999999 1.5983505499999957 -0.7892553499999999
Cu -2.312149049999995 -1.6228523499999987 0.4096748500000005
Cu -1.4633559500000004 0.21455004999999616 2.40001515
Zr 2.212348949999999 0.7982483499999979 -0.3937351499999999
Zr 1.4077453500000061 -1.5667495500000008 1.6432649499999994
Zr -0.05615234999999785 2.3493499500000006 1.4142944500000003
Cu 2.312149049999995 1.023647350000001 2.0255749499999998
Cu -0.4424514500000001 0.215648649999995 0.07442495000000049
