12

Cu -0.38570020000000227 -1.74395085 -2.3754025
Cu -2.1907996999999995 0.459849450000001 -1.7877025999999958
Zr 2.3610992999999993 -1.3169508500000005 -0.8089999999999975
Cu -2.6082000999999977 -0.9424505500000011 0.1917972999999975
Zr -0.4351005999999984 2.60805035 -0.0058993999999970015
Cu 0.1956977999999978 1.1007490499999983 -2.531099300000001
Zr 2.6082000999999977 1.8975496499999993 -0.760702099999996
Zr -0.5466994000000014 -2.60805035 0.5426006000000001
Cu 1.0175971999999973 -1.3424501500000003 2.531099300000001
Zr -1.9512023999999997 0.08734984999999984 2.4269999999999996
Zr 1.0799979999999962 1.8338499499999985 1.8861980000000003
Cu -0.08309940000000182 -0.1729497499999999 -0.1452007999999978
