14

Cu -0.1586990999999962 -0.29810140000000374 -2.7541493999999975
Zr -1.2826995999999973 -2.1055012000000026 -1.4968500000000002
Zr 2.066398600000003 -0.3794994000000038 -1.8985490999999985
Cu -2.684299399999997 0.18829919999999944 -1.8030500999999983
Cu -0.7075995999999982 -1.7137011999999991 0.9101514999999996
Zr -0.4598007999999929 0.49429890000000043 2.7541493999999975
Zr 1.5582008000000052 -2.5782986 0.17975140000000245
Cu 2.684299399999997 -0.17600050000000422 0.8247518000000031
Cu -0.7871017999999985 2.552301400000001 0.9483519000000005
Cu -2.541400999999997 0.4200993000000004 0.8371495999999983
Cu -0.714500399999995 1.965600999999996 -1.2779474000000004
Zr 2.284000400000007 2.5782986 -0.5817499999999978
Cu 1.3087006000000052 2.0486010999999955 1.9720525999999996
Cu -0.2583999999999982 0.10899929999999713 -0.040047700000000575
