15

Zr 0.4279895000000007 1.2964001000000032 -3.1886997500000014
Cu -0.4539199000000007 -1.1310023999999963 -2.445501349999997
Cu -1.8802599999999998 -0.8514003999999993 -0.39550205000000105
Zr 0.3053203 -3.1821002999999983 1.1252994499999964
Cu 1.8084798000000006 -1.0229016000000009 -1.3047008499999997
Zr -1.9151100999999997 1.1966991 -1.9259014500000013
Cu -1.2486500999999999 2.341798800000003 1.365598649999999
Cu -3.1308799 1.0613994000000027 0.5061969499999996
Cu 0.37696030000000036 3.1821002999999983 -0.8919010499999978
Zr -1.1418600000000003 -0.29220009999999874 2.233900049999999
Zr 3.1308799 1.572000499999998 -1.1644000500000011
Zr 3.0504803999999996 -0.5981006999999998 1.5317973500000015
Cu 2.1972795000000005 2.5498981999999977 1.1299991499999997
Cu 0.4177899000000007 1.716798800000003 3.1886997500000014
Cu 0.2440496000000003 0.1842975000000031 0.006196949999999646
