14

Cu 1.4722499999999972 -1.6463998499999999 -1.767051649999999
Zr -0.42104910000000295 -0.17371974999999917 -2.5653495500000005
Zr -2.8341502999999992 -0.9208601499999993 -0.2346496500000015
Cu -1.032850299999998 -2.9580899499999997 -0.43564984999999723
Zr 0.917848600000001 -2.5538698499999994 1.4498481500000011
Cu -1.8743496000000004 1.6247998500000005 -0.1596488499999964
Cu -0.8168507000000016 2.455010550000001 -2.2017517499999997
Cu -0.8465480999999979 1.5105201500000005 2.3914489499999974
Zr 2.1572514000000016 1.01513015 -1.3087501500000016
Zr 0.8133488999999958 2.9580899499999997 0.41925044999999983
Cu -1.0918484000000017 -0.9069098499999999 2.5653495500000005
Cu 1.1058521000000017 -0.07509984999999997 2.505050650000001
Cu 2.8341502999999992 -0.40109994999999987 0.8429489500000003
Cu 0.0058498000000017925 0.3150402500000009 0.09484865000000298
