11

Cu 2.4723492 -0.574549199999999 -1.4067752499999995
Zr -2.189748699999999 1.8567500000000026 -0.6649649499999994
Zr -0.06315039999999428 0.7044500999999999 -2.70832515
Cu -2.4723492 -0.4467491999999984 -0.47481514999999996
Cu 1.9926509999999986 1.8860508000000005 -0.16628484999999982
Zr -0.5357531999999985 -2.3400492999999996 -0.8712952499999997
Cu 1.1915492999999948 -2.8763499999999995 0.8593652500000002
Zr 0.5916500000000049 0.6827502000000019 2.70832515
Cu -1.746351200000003 0.4078498000000019 1.8366954500000001
Cu -0.21495239999999782 2.8763499999999995 0.9669248500000003
Cu 0.05274779999999524 0.0730509000000028 -0.15365484999999923
