14

Zr -2.423099450000006 -1.6457997000000004 -0.4639968500000009
Zr 1.0358009499999987 -2.2772999 -0.9611968500000074
Cu -2.7732009499999997 1.2602997 -0.7321013500000078
Cu -1.960998550000003 0.5693998000000002 -2.8469008499999973
Zr -0.4361992500000049 2.2772999 0.014205950000004464
Cu -0.3816986500000006 -1.1784001000000002 -2.899101250000001
Cu 0.5749015499999963 1.3635004999999998 -2.375495850000007
Zr 2.7732009499999997 -0.16339970000000026 -1.0841979500000036
Zr 2.74169925 2.1740999000000008 -0.0017013500000047088
Cu 1.9128990499999965 -1.1888999999999994 1.723304749999997
Zr -2.5192985500000056 1.0138006000000006 1.6725998499999974
Cu -0.5774993500000001 -1.422800099999999 1.7086029499999995
Zr 0.6007003500000003 0.8203000999999999 2.899101250000001
Cu 0.18460084999999893 -0.1638995000000003 -0.45349885000000256
