13

Cu -1.2891006499999982 -1.8453025499999995 1.4024467500000029
Zr 1.014701849999998 -2.479900349999994 -0.5891532500000025
Cu -1.797100050000001 -0.9772986499999945 -0.8481483499999953
Cu -1.5769996500000012 1.124797849999993 -2.1773490499999966
Cu -1.5668983499999989 2.3927955500000024 -0.059452049999997314
Cu -1.9611015499999986 0.49699784999999963 1.6059456500000024
Cu 0.2988014500000027 -0.8620032500000008 -2.3216514499999974
Cu 1.6818008499999983 0.8118019500000031 -1.4895514500000004
Cu 1.9611015499999986 -0.16839975000000607 0.8194465500000021
Zr 0.9949989499999994 2.479900349999994 0.39515304999999756
Cu 0.4936981500000037 0.46560284999999624 2.2975502500000076
Cu 1.0362014500000036 -2.102603849999994 2.3216514499999974
Cu -0.08769984999999636 0.008502949999993348 0.02904894999999641
