15

Cu 2.3479451900000043 -1.4309540499999969 1.6296343650000011
Cu 0.32064529000000164 -1.4063492500000052 2.9467244650000026
Cu -2.006644290000011 -2.993652449999999 0.17317163499999566
Cu -2.3338460900000086 0.09194935000000726 -0.2621312650000007
Cu -0.4297647100000006 1.7532501499999995 2.359464365000001
Zr -0.4054146100000011 3.119049050000001 -0.03553056500000906
Zr -2.3479451900000043 -0.9944535500000029 2.3532144650000006
Cu 0.3269552900000008 -0.8042526499999951 -2.9467244650000097
Cu -0.007194509999997933 -2.9020539499999956 0.807354464999996
Cu 1.937635390000004 -1.5364532499999939 -1.0332264650000056
Cu -0.08060451000000057 -3.119049050000001 -1.7762303650000106
Cu -1.9969046100000014 -1.4654541499999993 -2.1273274650000005
Cu 1.5321855900000045 1.7161483499999974 1.364334565
Zr 2.3340854899999997 1.4071502500000008 -1.2039265650000104
Zr -0.10514451000000236 -0.43495185000000447 0.27857153499999043
