11

Cu 0.20805080000000054 -1.081729450000001 -2.4335994999999997
Cu -1.1768503 1.4218106499999994 -2.033597999999998
Zr 1.2417497999999991 2.45150995 -1.4915980999999974
Zr -2.2069501999999996 -0.905489450000001 -0.381799799999996
Cu 2.080750499999999 0.08031034999999953 -1.7289981999999995
Zr 0.7900495999999979 -2.45150995 -0.3002988000000002
Zr -0.9626493000000007 -1.16276985 2.4335994999999997
Zr -1.5239496 2.0482106499999997 0.5124989000000042
Cu 1.0285501999999997 2.0050101500000004 1.5987987000000032
Zr 2.2069501999999996 -0.4713597500000013 2.000299400000003
Cu 0.12295059999999758 0.28141074999999915 -0.13659859999999924
