14

Cu 2.007250749999999 -2.3235493 -0.6002502500000002
Cu -0.5569506499999992 -0.4593506000000005 -2.52775005
Cu 0.15294935000000187 -2.6503505999999994 -2.220949250000002
Zr 1.9421510500000014 0.7638493000000004 -1.9778499500000013
Cu -1.5463495500000004 -2.162849399999999 -0.16505045000000074
Zr -3.14395045 -0.002050400000001673 -0.3285503500000022
Cu -1.468249349999999 0.9583492000000007 2.05355065
Cu -1.5437498499999993 -1.446849799999999 2.2276496499999983
Zr 3.14395045 -0.021949800000001574 0.6039504499999975
Cu 0.2792501500000011 -2.6330509000000006 1.460350049999997
Zr 1.6591500499999992 2.6503505999999994 0.6180496499999979
Zr 0.679049449999999 0.37755010000000055 2.52775005
Zr -1.0251493500000013 1.893449799999999 -0.5853500500000006
Cu 0.21365064999999994 -0.3790493000000019 -0.0749492500000013
