16

Zr 0.13260645000000437 -2.1578502999999962 -2.3055000500000062
Cu -2.5401000499999995 0.8107509999999998 -1.5598029500000052
Zr 2.2601013500000064 -1.8950519999999962 -0.6961021500000015
Cu -0.3779983499999915 1.0333500000000022 -2.3075980499999957
Cu -2.07629395 -1.927850699999997 -0.7565040500000038
Cu 0.045501649999998506 -2.483850499999999 0.9673958500000026
Cu 0.13860315000000156 -0.17995259999999647 2.358799050000002
Cu 2.23590085 -1.4565524999999973 1.8650017500000047
Cu -2.207496650000003 -1.2597522999999988 1.8818016499999999
Zr -0.9272995499999936 2.483850499999999 0.06789784999999426
Cu -1.6912994499999954 1.3250484000000036 2.593997950000002
Cu 1.4288025500000074 2.3519497000000023 -0.482097550000006
Cu 0.9199065500000003 2.0930500000000016 2.0282020500000044
Cu 1.998802149999996 0.47315020000000274 -2.593997950000002
Cu 2.5401000499999995 0.7227496999999978 1.094501550000004
Zr 0.16950225000000074 -0.1235522999999965 -0.08909984999999665
