12

Cu 0.20254894999999706 -2.085802050000005 -1.0534506500000003
Zr -1.3595504499999969 0.6638012499999988 -2.760849949999999
Zr 1.9947510500000014 -0.6581019500000025 -2.668148950000001
Cu -2.372051250000002 -0.5178012500000051 -0.6437501500000007
Zr -2.1477508499999978 -2.3398990499999996 1.48955065
Zr 0.8492507499999995 -1.7791003500000002 1.6513509499999994
Cu 2.372051250000002 0.14090164999999644 0.26585094999999903
Cu 0.716148350000001 1.3671017499999962 1.6930493500000008
Cu -0.9292488499999969 0.13989834999999573 2.760849949999999
Zr 1.584049249999996 2.3398990499999996 -1.3264494500000001
Cu -1.7683487499999977 1.6770000499999966 0.37955005000000064
Cu -0.2734489499999988 -0.05660054999999886 -0.2308493500000015
