12

Cu -1.2298011999999972 -1.6923485000000014 0.49594880000000074
Zr -1.0218009999999964 -1.7858505000000022 -2.3961486999999977
Zr -2.7467003000000005 1.2962494000000007 -1.0341491999999946
Cu -0.7433967999999993 1.1687508999999991 -2.676048299999998
Cu 1.350398999999996 0.10914989999999847 -1.8121490999999992
Zr 0.07780080000000567 2.788349199999999 -0.5150451999999959
Zr 0.9686011999999948 -2.788349199999999 -0.06945040000000091
Zr -2.1820029999999946 1.2008513999999977 2.0492477000000022
Zr 2.7467003000000005 0.5484505000000013 0.862350499999998
Zr 0.6702003000000047 -0.9848518000000013 2.676048299999998
Cu 0.38109970000000715 1.6856499000000014 1.875648500000004
Cu -0.2468987000000027 0.09265150000000233 -0.30104829999999794
