17

Cu -0.7166996500000025 -2.3963012500000076 -2.4014549499999998
Cu 1.4251002499999998 -2.3098983500000116 -1.0842952500000003
Cu 0.35939974999999436 -0.2920989500000104 -2.8198852500000005
Cu 3.0599994499999994 -0.551597550000011 0.3481845500000009
Zr 0.47619814999999477 3.473800650000001 -1.203325249999999
Cu -1.468400950000003 1.5291061499999898 -1.7739353500000004
Cu 2.33669845 0.9803009500000002 -2.2076854499999996
Cu -2.137300549999999 -1.3404998500000005 -0.7472153499999994
Cu -3.0599994499999994 0.30690004999999587 1.03938475
Zr -0.6947002500000039 -0.8838958500000018 2.6329850500000003
Cu -0.3118992500000033 -3.473800650000001 0.4967851500000009
Cu 1.5072002499999968 -2.1792983500000105 1.402784350000001
Zr 2.1388987499999956 0.586303749999999 2.8198852500000005
Cu 1.512998549999999 2.9073028499999936 1.1276845499999997
Cu -1.8536015500000005 2.6644058499999943 0.23818484999999967
Cu -0.24730115000000552 1.716003449999988 2.382184950000001
Zr 0.27189824999999956 0.07900234999999611 -0.15741545000000023
