15

Zr -2.22230055 1.3327493500000003 -1.6929493000000022
Cu 0.0735998500000008 2.8531504499999976 -2.200048500000001
Zr -1.252999250000002 -3.1592493499999996 -0.002849600000001118
Cu -2.9116010500000016 -0.19495105000000024 0.12765119999999897
Zr -1.4602994500000008 1.4923505499999976 2.6308498
Zr 1.17199995 -1.7240495500000002 -1.8408490000000022
Cu -1.9863004500000017 -1.4828500499999997 -1.7822495000000025
Cu 0.4970998499999979 0.4908495500000001 -2.9454499
Cu 2.9116010500000016 -0.0007505500000029031 0.9124506999999973
Cu 1.4461012499999981 2.187350249999998 1.0301513
Cu -0.7391996499999998 3.1592493499999996 0.24375149999999834
Cu 2.3059988500000017 1.466349649999998 -1.335249000000001
Cu 1.1760015500000023 -1.8452501500000018 1.5193499999999993
Cu 0.8123998499999985 0.24114894999999947 2.9454499
Zr -0.12449935000000067 -0.012450250000000551 -0.013248500000003105
