16

Zr 1.1984500999999987 0.020549799999999507 -3.1439495000000015
Cu -2.5555477000000018 -0.5159491999999997 -1.3800525000000015
Cu -0.6640490999999962 -1.6579494000000015 -2.219152300000001
Cu 1.5596522999999998 -1.758249300000001 -1.2582492999999992
Cu 3.203950899999999 -0.18734929999999927 -1.6891497999999991
Zr -1.2558497999999965 1.8660507000000006 -2.128549600000003
Cu 1.5270519 1.9300499999999996 -1.1964511000000009
Cu 0.7526493999999992 -2.704349500000001 1.166250299999998
Zr -3.203950899999999 0.5718498000000007 0.8804492999999987
Cu 1.9745501999999995 2.3379497999999987 0.9304486000000018
Cu -0.222547500000001 2.704349500000001 0.322050100000002
Cu -1.6398486999999982 -1.9265498999999995 0.6768474999999974
Cu -1.1098498999999968 1.7467498999999993 2.446149899999998
Zr -0.11924939999999751 -1.2337493999999989 3.1439495000000015
Zr 2.646852599999999 -0.6433505999999998 1.1884479999999975
Zr 0.10994909999999791 0.2080497999999995 0.18334770000000233
