17

Cu -0.1362495999999993 -1.7811489000000016 -2.582201050000002
Zr -1.3381501 0.8949490000000004 -2.611898449999998
Cu -2.3551502999999983 -2.1682491000000006 -1.6532993499999975
Cu -2.4693489 2.7764491999999983 -0.8352985500000045
Cu -2.86195 -2.1075497000000034 0.3225002499999974
Cu 1.300251000000003 -0.28154950000000056 -1.9247989500000031
Cu -2.6221505 0.4154492000000012 0.1318988499999989
Cu 1.3455505000000016 1.9810504999999985 -1.5115985500000022
Zr -0.2673491999999982 -2.7764491999999983 -0.026998550000001842
Zr -0.3949508999999978 2.6581477999999983 0.6822986499999999
Zr 2.469150499999998 -2.045652399999998 -0.3990993500000002
Cu 2.86195 0.8504504999999973 1.4698009499999998
Cu -2.1502494 1.165849699999999 2.18720055
Cu 0.856552200000003 1.1079502000000012 2.4531002499999985
Zr -1.3297500999999983 -1.0564518000000014 2.611898449999998
Cu 1.218349400000001 -1.0097522999999988 1.6139012499999978
Cu -0.18014900000000011 0.04754829999999899 -0.3953991500000029
