13

Cu 1.7047064900000066 -1.4340300000000008 -0.8669099999999998
Cu -0.9250878900000004 -2.5862699000000005 -0.38591
Zr 1.6946096100000005 2.5862699000000005 -0.6302098999999997
Cu -2.9177865900000057 -0.012230399999999086 0.5117893999999987
Cu -0.6215905899999967 -0.6591306000000001 -2.8035898
Zr -2.7397851900000063 1.54427 -2.0209903999999996
Cu -0.3144845900000064 1.8011699000000005 -2.3703898000000008
Cu 0.7665167100000048 -1.9046101000000002 1.654489599999999
Zr -1.0857858899999968 -0.45902969999999943 2.8035898
Cu 2.9177865900000057 0.7817703000000007 0.3008899999999999
Cu 1.0528097100000053 2.0046697 1.5035897
Cu -1.2786874899999958 1.9841694999999993 1.20329
Zr -0.45388889000000177 -0.0804304999999994 -0.4213104000000003
