12

Zr -1.6454009999999997 -2.15704005 -1.2991485000000011
Cu 0.7556992000000022 -0.7005302500000004 -3.1330489999999998
Cu -1.1707000999999977 -2.40714995 1.2974510000000024
Cu 1.0800971999999973 -2.56208015 -0.08824919999999992
Cu -2.4668999000000014 -0.15489024999999979 0.7591515000000015
Zr -1.1421013000000002 -0.41848015000000016 3.1330489999999998
Zr -1.2590027000000035 1.6128900500000003 -1.6830482000000018
Zr -0.25099939999999776 2.1083696500000007 1.4723510999999974
Cu 1.3293991000000034 2.5620801500000003 -0.35945129999999637
Cu 2.4668999000000014 0.20669014999999957 -0.8478508000000033
Zr 1.7635002000000028 -0.7567102499999998 2.0101508999999993
Cu 0.05789949999999777 -0.13381025000000024 -0.02774800000000255
