16

Zr -1.3031998499999986 0.28659814999999966 -3.0159492499999985
Zr -2.775600449999999 -1.6253013499999973 -1.2363510500000032
Cu -0.02659994999999782 -2.1360016500000008 -1.3298492500000023
Zr -1.6196022499999998 -2.9943008499999983 0.7970504500000004
Cu -1.2847023499999963 1.327999049999999 3.0159492499999985
Zr 1.5256003500000048 -0.05830005000000327 -2.2345504500000004
Zr 1.8924980500000004 -2.709499349999998 1.3165512499999963
Cu 2.775600449999999 -0.5675010500000006 -0.1629524499999988
Cu -0.23630144999999914 2.5704994500000033 -1.3572501499999987
Cu -2.310302749999998 -0.6383018500000013 1.5599480499999956
Cu -2.180702149999995 1.5703010500000012 -0.806549050000001
Zr -0.48929984999999476 2.9943008499999983 1.5618476499999971
Cu 1.2586974499999997 0.728298149999997 2.380847949999996
Cu 1.886600450000003 1.7634010500000024 0.11764904999999715
Zr 0.015998750000001394 -1.6092987499999971 2.930549649999996
Zr -0.034801549999997405 0.027599349999999134 0.2604484499999984
