12

Cu -1.50584995 -2.8488497499999994 -0.650499350000004
Zr 0.3748501500000003 -1.573149149999999 -2.369897850000001
Zr -2.4081497499999998 -0.34655044999999873 -1.0967006500000025
Cu -1.39554985 1.3214507500000003 -2.62589835
Zr 1.84605015 1.4734492500000016 -1.937700250000006
Cu 0.2409505499999991 -2.1305508499999988 1.113699049999994
Zr 2.4081497499999998 -0.5959495500000003 0.39020345000000134
Zr -1.893149450000001 -0.35394905000000065 2.62589835
Zr 0.7721499499999993 1.2686495499999992 2.32369804999999
Cu -2.02974895 2.0546508500000016 1.56449705
Zr -0.3333492499999995 2.8488497499999994 -0.19149964999999725
Cu -0.21984965000000045 0.30395084999999966 -0.12089724999999873
