12

Cu 0.7345504500000004 -1.5076484499999978 -2.3128490500000005
Zr -1.9042511500000003 -2.257747650000006 -0.902650849999997
Zr -2.525451650000001 1.1883506499999967 1.1665515500000048
Cu -1.3274497499999995 -1.9805488499999981 1.685350450000005
Cu -2.1336517499999985 0.5778541500000003 -1.7256488499999953
Cu 0.7947502499999999 -2.3533515500000064 0.0034503500000049314
Cu 2.525451650000001 -0.11334615000000525 -0.19254874999999672
Zr 0.8877487500000001 1.2557487500000022 -2.0681475499999955
Cu -0.6089515500000005 2.3533515500000064 -0.009649249999998943
Cu 1.3392486500000018 2.000949949999999 1.12254905
Zr 0.8853492499999973 -0.25545125000000013 2.3128490500000005
Cu -0.43135075 -0.12164684999999764 0.04585075000000316
