14

Zr -0.9623007999999995 -0.6959009500000022 -3.093601300000003
Cu -2.4766001999999983 -0.9116010500000016 -0.6781959999999998
Cu 0.9669995000000018 -1.8939008500000014 -1.8768958999999938
Zr -1.6973003999999996 1.6136999499999973 -2.069202500000003
Cu -0.7004999999999999 2.37419985 0.6504019999999997
Zr 1.5079007000000022 1.5109987499999988 -2.2302971000000014
Cu -0.13880110000000023 0.937699349999999 2.381702400000009
Zr -1.0824999999999978 -1.5613012499999996 3.093601300000003
Cu -1.2084993999999991 -2.37419985 0.5583992000000109
Zr 1.7164006000000018 -1.4558000500000006 2.135105100000004
Cu 2.7579998999999997 -1.233500450000001 -0.650997199999992
Zr 2.517500400000001 1.7832994499999977 0.6265982999999977
Zr -2.7579998999999997 0.8353986499999984 1.7269020000000097
Zr 0.15090039999999938 -0.04810044999999974 0.03860090000000582
