13

Cu 0.5169524999999968 0.7125549499999977 -2.379949550000001
Zr -1.2343482999999988 -1.7980499499999922 -2.6965503500000008
Cu -2.3794497000000003 -2.75064845 -0.11775015000000089
Zr 0.1646499999999964 -2.8419494500000013 0.6193504500000007
Zr -2.3839492999999994 0.4161529500000114 -0.8690490499999992
Zr -0.8214492000000018 1.9392547500000035 1.95504955
Zr 1.986549399999996 -2.192947349999997 -1.84885025
Cu 1.268150399999998 2.013252350000002 -0.12764924999999927
Cu 2.3839492999999994 -0.07544704999999396 -0.09135054999999959
Cu -1.3969496999999986 2.8419494500000013 -0.5775507499999986
Zr -1.9668502000000014 -1.0914458499999995 2.058149349999999
Zr 1.355049199999998 -0.5204467499999907 2.6965503500000008
Cu -0.09994879999999817 -0.5100478499999923 -0.07665054999999832
