14

Zr 2.4747901 -0.5352459000000067 -1.833200399999999
Cu -0.6803097999999999 0.5043507000000034 -2.7329006000000042
Cu -1.8431096 -1.7624493 0.5808009999999975
Cu 0.7741895000000003 -2.6427479000000034 0.2450008999999973
Cu -0.7610097000000007 -1.9351482000000004 -1.8131999999999984
Cu -1.8657804000000002 0.30175210000000163 1.5865994000000008
Cu 0.3424896999999998 -1.3416500000000013 2.090299699999999
Cu 2.582890000000001 -1.4547481000000033 0.8811015999999974
Zr -1.1340699 2.6427479000000034 -0.1564998000000024
Cu 1.1791900999999996 1.7916507999999993 -1.0301989999999996
Cu -2.9501901000000004 0.3198489999999907 -0.6639002999999981
Zr 0.3433899999999994 1.2708530000000025 2.7329006000000042
Cu 2.9501901000000004 0.9096469999999925 1.9260005999999983
Cu 0.04548980000000036 -0.23194700000000523 0.02540019999999643
