12

Cu -2.213750900000001 0.7643985499999992 -1.9735984499999972
Cu 0.10984990000000039 1.5352001499999979 -1.737300849999997
Cu -0.2574500999999998 -2.540300349999999 0.2263984500000049
Zr -0.8757495999999989 -1.5842991500000032 -2.25799945
Cu 0.22195059999999955 -1.1752987499999996 2.1580009500000017
Cu -1.934049599999998 -1.5273990500000032 0.13090135000000203
Zr -2.215049799999999 1.1382999500000004 0.868999450000004
Cu 0.41194910000000107 2.540300349999999 -0.05319595000000277
Cu 1.7349491000000015 -0.10780145000000019 -2.0210990500000037
Cu 0.27605060000000137 1.183301949999997 2.25799945
Zr 2.215049799999999 -0.0187015499999994 0.6544991500000066
Cu -0.21705060000000032 -0.06619835000000407 -0.11939615000000003
