13

Zr 0.17030340000000166 0.4648499500000005 -2.32285495
Cu 0.06469740000000712 -2.1529498499999997 -1.13577465
Zr -2.575599700000005 -2.4907498499999994 -0.13964475000000043
Cu 1.8173980999999984 -1.4331498500000004 0.38545504999999913
Zr 2.575599700000005 0.6965508500000004 -0.26820475000000066
Cu 0.5332031999999955 2.4907498499999994 -0.9644146500000002
Cu 1.1965027000000035 -0.2968497500000007 2.32285495
Cu 2.381599400000006 -1.3163495500000009 -2.17629535
Cu -2.144699100000004 -0.4889492500000001 -1.84470475
Cu -0.2714996000000056 1.3001504499999994 1.3184546499999996
Cu -2.5474014000000054 0.07245114999999824 1.6985550499999995
Zr -0.5081024000000056 -2.18774935 2.11785495
Cu -0.45960229999999314 -0.3249497500000009 -0.0777455499999995
