17

Cu -0.7522029999999944 -2.6273518499999966 0.2108497000000007
Cu 2.2404995000000056 -0.913648649999999 -1.178749100000001
Cu 1.2040997000000004 -2.9274502499999997 -1.3343486999999996
Cu -0.49469949999999585 1.7853488499999983 -2.4612502999999997
Cu -1.1518001999999967 -1.21785165 -1.9461498000000006
Cu -0.737699499999998 -2.143251450000001 2.935850200000001
Cu 1.1243991999999992 0.10614964999999899 -2.935850200000001
Zr 1.793302500000003 2.40545075 -1.5363503000000023
Zr -2.5703028999999944 -0.762750650000001 1.7263507999999987
Zr -2.7413005999999953 1.0166492500000004 -0.9771500000000017
Cu 0.7523976000000019 0.28285025000000275 2.7303505
Cu -1.730401999999998 2.0455493500000017 1.8233508999999977
Cu -0.7269000999999946 2.8150500500000035 -0.23964880000000122
Zr 1.1561985000000021 2.9274502499999997 2.2722510999999983
Cu 2.7413005999999953 -1.0850505499999983 1.3669510000000002
Cu 2.5169964000000036 1.0231494499999982 0.5734500999999987
Zr 0.04599950000000064 0.10785094999999956 0.16055120000000045
