16

Cu -0.937148999999998 -2.649948099999996 -0.04769995000000016
Cu -2.4724502999999984 0.44195180000000533 -2.1266012499999984
Cu 1.7633513999999977 -1.9323501999999948 -0.7754011499999987
Zr -1.7851486000000065 -1.774948099999996 2.411599149999999
Cu -0.7728499999999983 -1.380248899999998 -2.19760035
Zr 1.873550399999992 -0.5434494000000001 -2.988900150000001
Zr 1.1068496999999908 -2.679950699999999 1.6622991500000008
Cu 2.4724502999999984 0.30165099999999967 1.713999750000001
Cu -2.0898514000000077 2.6120491 -1.2202005499999995
Cu -0.08664700000000636 1.2265511000000018 -2.19369985
Cu 2.1775512999999975 1.306949600000003 -0.7546014500000009
Cu -0.1970444000000029 2.679950699999999 0.6218995500000002
Cu 0.8486557000000019 -0.3526497000000006 2.988900150000001
Cu -2.0605468999999985 0.7360496000000012 0.3312997500000012
Cu -1.5354461000000086 1.4474487000000025 2.881400049999998
Zr 0.07315059999999818 -0.036048899999997275 0.12679954999999943
