15

Cu -1.4151992999999985 -1.787799849999999 -1.4412002499999979
Zr 1.7178011000000017 -1.4922981500000105 -1.8508987500000025
Cu -0.3283996999999994 2.41700354999999 -1.189498849999996
Zr -0.7753991999999998 0.6758994499999886 -3.2116012499999975
Zr 2.4082003 1.5348014499999891 -2.08240125
Zr -0.376099599999999 -2.9727974500000016 0.7129020500000003
Zr 2.4135008000000004 -0.9862023499999992 1.415100050000003
Zr -2.619999899999999 -0.8618965500000115 0.6645011500000031
Zr -2.521199199999999 2.235202749999999 0.43569944999999777
Cu -1.8644990999999989 0.7785987500000005 2.902099549999999
Cu -0.9144993000000001 -1.5062981500000063 3.0755996500000045
Cu 0.2073002000000015 2.9727974500000016 1.0427017500000026
Zr 0.5417004000000007 0.897602049999989 3.2116012499999975
Zr 2.619999899999999 2.1425971500000003 0.7966003500000021
Zr -0.07539939999999934 0.5080985499999997 0.37829975000000005
