15

Cu 0.14612530999998796 0.22654720000000594 2.8233985999999973
Cu 0.011725909999995565 -1.1386488999999997 -2.4671973999999963
Cu -2.139778590000006 0.025848400000008098 -2.2896995000000047
Zr -1.6921772900000036 -2.8192519999999988 -1.5159034000000062
Cu 2.065024809999997 1.2858505000000022 -1.2290993000000086
Zr -2.1856770899999987 -2.035247699999992 1.8640021999999945
Zr -2.782577990000007 1.8987502999999961 -0.9858970000000014
Zr 0.329223209999995 2.8192519999999988 0.2770957999999908
Cu -1.8005756900000023 1.068550100000003 1.8045997999999983
Cu 2.1237680899999987 0.6072464000000011 1.3390999000000008
Cu 1.1752238099999914 -2.4672469999999933 -1.4684027999999998
Cu 2.78257799 -0.9680480999999972 -0.5421028000000021
Zr 1.5270229099999995 -2.5913466999999955 1.4522971999999967
Cu -0.23467299000000708 1.449951200000008 -2.8233985999999973
Zr -0.30647328999999957 -0.46414949999999777 0.03329849999999368
