14

Zr -3.0725508 0.6792993000000003 -0.39205175000000025
Cu -1.3097505999999992 -1.2433005000000001 -2.050052749999999
Cu 0.12435060000000142 -2.6283998000000004 -0.41755295000000103
Cu 1.2483492000000016 -0.7257014000000019 -2.737850250000001
Cu 3.0725508 -0.6894006000000026 -0.7195511500000009
Zr -0.1521500999999983 1.3643999999999998 -2.1301499500000034
Cu 2.5851507000000016 1.4854993000000007 -0.881851250000004
Zr -1.7378492000000012 -1.640900600000002 1.4853477500000025
Cu -0.20984939999999774 0.06379979999999819 2.737850250000001
Cu 1.244950300000001 -1.8248014999999995 1.4955482499999988
Cu -1.8836507999999998 1.3838988000000008 1.674850450000001
Zr 2.204850200000001 0.5706986999999977 1.999248449999996
Zr 0.2947493000000012 2.6283998000000004 0.3783492499999994
Cu 0.426350600000001 0.011799799999998584 -0.03775035000000315
