17

Zr -2.9036006999999984 0.016605349999998964 -1.9050978999999941
Cu -1.2011012000000036 -2.7240943500000085 -1.5659980000000004
Zr 0.26650049999999936 -0.7915000500000033 -3.0027007999999995
Cu 0.7222003999999984 -2.893398249999997 -0.12009809999999987
Zr 1.1712970999999968 1.7894019499999914 -2.1026000999999965
Cu -1.3601017000000013 2.504901850000003 -1.3545990000000003
Cu 2.6038989999999984 2.4696006499999967 -0.03899759999999475
Cu -1.9450016000000048 -0.39179614999999757 2.2796021000000053
Cu 2.2256985 -1.1086006500000067 -1.1231002999999973
Cu -1.7161006999999984 -1.8415946499999976 0.17600250000000273
Zr 0.8461971999999989 -1.6743965500000044 2.419201000000001
Cu 0.4015979999999999 2.893398249999997 0.6539993000000024
Cu -2.7912998000000044 1.1529045499999953 0.5687027000000029
Cu 1.1980991000000003 1.0468025500000024 3.0027007999999995
Zr -1.3178997000000052 2.3199043499999945 2.4734002000000004
Zr 2.9036006999999984 0.24209975000000128 1.043899500000002
Zr 0.09319879999999614 0.05320354999999921 0.017200500000001284
