13

Zr -0.8860970000000066 2.7903003999999996 -1.6924495500000027
Cu 0.7653998999999914 -0.2842999000000006 -3.1869487500000027
Cu 2.693500499999999 0.38579750000000246 -0.6956500500000011
Cu -2.693500499999999 0.15679740000000209 -1.6670474500000019
Zr -2.293300700000003 -1.374403000000001 1.2829494500000003
Zr -0.8285941999999977 -2.0018023999999954 -1.8255481499999995
Cu 0.9881019000000038 -2.7903003999999996 -0.008748950000001088
Zr 0.5534018999999972 -1.2776011999999994 2.272649750000003
Cu 1.0809059000000047 2.5737973000000025 0.1933498500000006
Cu -1.3120003000000082 2.2482967000000045 1.096849449999997
Cu -1.2806968999999953 0.714197200000001 3.1869487500000027
Zr 1.7352027999999962 1.7098980000000026 2.760450350000003
Zr 0.08050159999999096 0.294198999999999 -0.16345014999999918
