11

Zr -0.33019830000000105 1.4906540499999892 -2.458600950000001
Cu -2.2513999999999985 -0.09034725000000776 -0.8533992499999989
Zr -1.7383995000000017 -2.4464492500000006 0.628000250000003
Zr 0.5027999999999988 -2.0493468500000063 -1.771600750000001
Cu 1.3089999999999993 1.438148549999994 -0.22519875000000056
Cu 2.2513999999999985 -0.9685515500000008 -0.010702149999996635
Zr -1.2890986999999985 2.4464492500000006 0.6107006500000018
Zr 0.8971004000000011 -2.418251050000009 2.296300850000005
Cu -1.2877998000000002 -0.04524994999999876 2.458600950000001
Zr 1.4291 0.7544479499999994 2.280298250000005
Cu -0.20179940000000052 -0.3400497500000057 0.4903010500000029
