15

Zr -0.1491012000000005 -2.1752014000000006 -0.6942006000000012
Cu 1.947498399999997 0.17409710000000267 -1.4769001000000008
Zr -2.965801199999998 0.08839989999999709 -0.44819929999999975
Zr -0.7297019999999996 0.10179709999999709 -2.9779004999999996
Cu 2.965801199999998 2.237699499999996 -1.5376997000000001
Cu 2.7364005999999996 -0.3159008000000032 1.6736992999999982
Cu 0.9693985000000005 -0.6689013999999975 2.9779004999999996
Zr -1.2945022000000002 -1.7992019999999993 1.5595998
Zr 2.910098999999999 -2.4276007999999987 -0.021500600000000425
Cu 0.684700000000003 -3.2385006 1.8310002999999986
Cu 0.025299100000001573 3.2385006 -0.1668996999999992
Cu -2.3012008 0.4509983000000002 2.2498007000000007
Cu -0.31290050000000136 1.6420001999999965 1.9908990999999991
Zr 2.5830993999999983 2.1539973999999997 1.3016004000000008
Cu 0.6214981000000002 0.1478976999999997 0.3952990000000005
