15

Cu -3.1723499000000004 -0.0018500999999986334 -1.8702011500000033
Cu -1.1467493999999974 -1.5486488999999999 -0.977901450000001
Cu 1.650350600000003 -1.2556495999999981 -1.840301550000003
Cu -0.4186497000000031 2.9227504999999994 -1.041500150000001
Cu -0.7077503000000007 -0.06824879999999922 -2.341899850000001
Cu 1.8476506000000015 2.114650700000002 -1.4669990500000019
Cu -0.6768475000000009 -2.0633488 1.9706993500000003
Zr 1.0060519999999968 -2.9227504999999994 0.025501250000001363
Zr -2.4166469999999975 1.4861506999999996 0.32600014999999516
Cu -2.5657482000000016 -0.8130492999999994 1.1650962500000013
Cu -0.6770496999999978 0.9443511999999998 2.341899850000001
Cu 1.286352100000002 2.367450699999999 0.9635963499999995
Cu 1.6157512999999994 -0.5499496999999991 2.041301749999999
Zr 3.1723499000000004 0.3131504000000014 -0.07550435000000633
Cu -0.013547799999997778 0.0723495000000014 0.0039024499999946727
