15

Zr 0.45265194999999636 -2.11135015 -1.9926490500000007
Cu -2.5707473499999978 -2.44693025 -0.7928503499999984
Zr -2.4224471500000035 -0.7540503500000004 2.8855495500000004
Cu -0.7560499499999978 -2.96390015 0.5065498500000025
Cu -1.988548250000001 -0.43320994999999973 -2.8855495500000004
Cu 1.9615478500000094 -2.99157005 -0.047349849999999805
Zr 1.457351750000008 -1.4790301499999998 2.4532490500000037
Cu 2.5707473499999978 -0.24403004999999967 -0.8110503499999986
Cu -1.2924499499999982 2.06396005 -1.6323508499999981
Cu -2.070648150000004 2.51386975 0.6290493500000025
Cu 1.155952450000008 0.4755897499999997 -2.4760493500000003
Zr 1.6633453500000073 2.4877199500000002 -0.8459491499999992
Cu 1.8619461500000014 1.0556296499999998 1.0280495500000022
Cu 0.3371506500000052 2.9915700500000004 1.7151508500000006
Zr -0.30965425000000124 -0.12137034999999985 0.0066509500000009325
