17

Cu -0.8309517000000035 -1.7076001500000002 -2.1695002500000022
Zr 2.241348300000002 -2.403600250000001 0.23110004999999845
Cu -2.446151699999998 -0.6530995499999994 -0.9853000500000029
Cu -0.4730491000000008 0.7884002499999996 -3.0687999500000025
Cu 1.4070511000000003 -0.750000550000002 -2.2987002499999996
Cu 1.5376511000000015 1.5512003499999993 -1.5808010500000016
Cu -1.591548900000003 1.772399449999999 -0.7376003499999975
Cu 2.766250600000003 0.4894995499999988 0.4144001500000023
Zr 0.012550399999998518 3.3292002500000004 0.2250003499999984
Cu -1.959049199999999 -1.69240045 2.334699650000001
Cu -0.478248599999997 -3.3292002500000004 0.9820003499999963
Zr 0.4931487999999966 -1.76560075 3.008897749999999
Cu -2.766250600000003 0.1130995499999985 1.6312999500000025
Cu -0.4145507999999971 0.7399992499999977 3.0687999500000025
Cu 2.578449299999999 -0.6700005500000001 2.6061000499999984
Zr 1.658451099999997 1.8728994499999994 2.0054988499999986
Zr -0.09125140000000087 -0.1800007500000005 0.13399695000000023
