13

Zr -2.571500750000002 -1.9031505500000012 0.6398005500000004
Zr 1.5124988499999965 -2.7408504500000017 -0.7272000500000004
Zr -1.3481998500000039 0.6323490500000002 -1.7676996500000008
Cu -2.5000019500000015 0.6108494499999981 0.3387999499999985
Cu -0.9002018499999984 -1.9526500500000008 -1.5767998500000004
Zr 1.1711978500000022 -0.48694985000000024 -2.4619994500000004
Zr 0.5107975499999959 3.1279506500000007 -0.9555000500000013
Zr 2.571500750000002 0.9350491499999993 0.1889005499999996
Cu -0.32950014999999766 -3.1279506500000007 1.5748000500000003
Cu 1.7821979500000005 -1.3723506499999996 1.8672995499999985
Zr -0.7502002500000025 0.5033493499999988 2.4619994500000004
Cu 0.9188976500000017 3.0030499499999994 1.74010045
Cu 0.08019834999999986 -0.092250850000001 0.14829974999999962
