12

Cu 1.1926994499999992 -2.380901300000005 -1.5032482000000016
Cu 2.987499249999999 -1.036899500000004 -0.531351100000002
Zr -2.987499249999999 0.09009930000000566 -0.1383495000000039
Zr 1.2861976499999983 0.02979670000000567 -2.47645
Cu -0.862899750000004 1.8842963999999967 -1.0340480999999997
Cu -0.9890022499999986 -1.3133049000000057 -1.7706508999999997
Cu 1.5177002499999972 -1.7360039 1.4007510999999937
Zr -1.20040135 -1.5019034999999974 1.3892497999999947
Cu -1.4204025499999986 1.5520972999999998 1.156450299999996
Cu 0.4510002499999999 0.4370995000000022 2.47645
Zr 1.655498449999996 2.380901300000005 0.4213504999999955
Cu 0.5522994499999996 -0.1894034999999974 -0.12055010000000266
