12

Zr -1.2188491500000005 2.4366302 -2.1888027
Cu 0.44775015000000096 -2.4366302 -2.061399500000004
Zr 0.37475015000000056 0.050149900000000525 -2.8537006
Cu 0.7718506500000011 1.9148598000000008 0.017000199999994692
Cu -1.9943484500000004 -0.8609699000000002 -1.8957005000000002
Zr 0.6154499500000021 -2.3453902999999996 0.8626994999999944
Cu -2.6327495499999998 1.6957703 0.7432002999999945
Zr -2.4043502500000002 -1.45999 1.0246981999999996
Zr -0.3296489499999993 0.08935979999999999 2.8537006
Cu 1.575250650000001 0.20026970000000022 0.9377002999999995
Cu 2.6327495499999998 1.0304804000000005 -1.1044026000000038
Cu -0.640850050000001 0.1489997000000005 0.25589939999999345
