11

Zr -2.6336002 -0.7038993500000004 -0.29129974999999675
Zr -1.8355997999999971 2.3924999500000013 -1.5331001499999992
Zr -0.8113993999999991 -0.847200449999999 -2.3080997500000002
Cu 1.4393005000000016 -1.1453991499999994 -1.1042995499999968
Zr -0.23640059999999963 -2.42309955 1.2295017500000007
Cu -0.9388999999999967 -0.30780024999999966 2.3080997500000002
Cu 0.5128002000000009 1.8931007499999986 -1.0789012499999977
Cu -2.4290999999999983 1.3077010499999986 1.3290996499999999
Zr -0.18799969999999888 2.42309955 2.189401650000004
Zr 2.6336002 1.1676997500000006 0.6500988500000027
Cu -0.39980119999999886 0.21789924999999855 0.27760125
