13

Cu -1.1119995500000002 -1.424201950000004 -1.8614502499999972
Cu 0.8192977499999969 2.2229995499999973 -0.5609512500000022
Cu 0.9186019500000029 -0.007198350000003018 -2.33024975
Cu -3.0589981500000007 -0.8582992500000017 0.3415489500000035
Cu -0.2716980500000048 -1.732898750000004 1.9349479500000015
Cu 2.632698049999995 -1.0338019500000044 1.9843482500000036
Zr 1.1455001499999966 -2.817001349999998 -0.9802513499999961
Cu -1.8457031499999985 0.9665986500000017 -1.3940505499999958
Cu -2.1277999500000035 0.28590014999999624 2.33024975
Zr -1.2225036500000002 2.817001349999998 1.4838485499999976
Zr 3.0589981500000007 0.8212013499999955 -1.1956519499999985
Cu 1.6090011500000045 1.4353981499999975 1.8872490500000012
Zr -0.1962967499999948 0.1388015499999966 0.12355035000000214
