14

Cu -1.730300949999993 -2.521799100000001 -1.7348500000000016
Cu 1.7708968500000069 -1.0190011000000023 0.7952489999999983
Zr -2.1231002500000002 2.848899900000001 -0.7668504000000009
Zr -3.143898049999997 -0.23490150000000476 -1.161150000000001
Cu -0.5298996499999973 1.091499299999997 -2.4148503000000012
Zr 0.5786971500000035 2.665698899999997 -1.118150700000001
Cu -1.0372009500000061 2.0643004999999963 1.6222504999999998
Zr 0.9659957499999976 -1.0656014000000038 -2.5616503
Zr 3.143898049999997 0.4140013999999983 -0.9644508000000016
Zr -0.7173996499999973 -2.848899900000001 0.6039494999999988
Cu -0.6540985499999934 -0.7893983000000002 2.5616503
Zr -3.018402149999993 0.43259809999999455 1.9588499000000006
Cu 1.4459991499999987 1.3904991000000013 1.3109502000000006
Cu -0.3647003499999997 0.2613981999999968 -0.004750300000001317
