14

Zr -0.11242344000001481 -2.6282996999999995 -1.4616490499999983
Zr 2.2639217400000007 0.8909950999999978 -2.4790478500000006
Cu -2.4088177400000035 -1.596904699999996 -0.7283497499999996
Zr 0.301776359999991 2.2531014000000056 -2.113050550000004
Cu 1.6144819399999975 -1.0656012999999973 -0.6622486500000022
Cu -0.32651944000001265 -0.19829939999999624 -2.6215496499999986
Cu -2.2770199400000024 0.6941948000000053 -1.2544499500000015
Zr -1.4051251400000098 -2.4015006999999997 1.5498522500000007
Cu 1.2851119400000002 -1.598102499999996 1.2807521499999979
Cu 2.510921940000003 1.2830009999999987 0.817651650000002
Zr 0.5869784599999974 0.8214988999999946 2.6215496499999986
Cu -2.510921940000003 0.2963981999999987 1.3015498500000007
Cu -0.5179181400000061 2.6282996999999995 0.8651522500000013
Cu -0.384624940000009 0.06560140000000558 -0.107549750000004
