16

Cu 0.2946300500000003 -1.4956989500000013 -2.704500200000002
Cu 2.33673005 0.5236987499999977 -2.409898699999996
Zr -0.30477044999999947 -2.2799015500000017 2.448000000000004
Cu 2.5408297500000003 -1.410799050000005 -0.7027988000000001
Cu 0.3496294500000001 -3.28370095 -0.12190049999999886
Cu -1.0476703499999989 0.35959815000000006 -1.9613016999999964
Cu -1.6653404500000004 1.8832988499999992 0.828001000000004
Zr -0.20487024999999903 3.28370095 -1.1690998000000015
Cu -1.6046705499999998 -1.559499650000003 -1.345998699999999
Cu 2.92323015 0.8646983500000012 -0.13860130000000126
Zr -2.92323015 -1.5457020499999992 0.9466000000000001
Zr 2.53693015 -0.5455990500000034 2.2860012000000047
Cu -1.870739949999999 0.2089977499999982 2.590498
Cu 1.1621294500000001 2.3868999499999966 0.5982990000000008
Cu -0.2489700500000005 1.5818004499999994 2.704500200000002
Zr 0.11553005000000027 -0.014402450000002176 0.4646015000000041
