16

Cu -0.13745019999999997 -0.4111995999999998 -2.9827499499999988
Zr 2.4094800999999997 -1.0212001999999991 -1.3582533499999982
Cu 0.12911990000000095 -2.291399000000002 -1.0855484500000046
Zr 0.557280500000001 2.1671999999999976 -1.7606506500000023
Cu -0.25640959999999957 -2.784200600000002 1.187950150000006
Cu 1.9430800000000001 -2.1616000999999976 1.0290527500000053
Cu -2.2268995999999994 -1.528101000000003 -1.2090530499999943
Cu -2.115989699999999 1.5044993999999967 -1.357948350000001
Cu 0.7989797999999997 -1.3509999000000015 2.9827499499999988
Zr -2.9472799 0.42079730000000026 1.1884536499999996
Cu -1.1086501999999996 -0.23470119999999994 2.5086517499999985
Cu -0.836019499999999 2.784200600000002 0.46365355000000363
Cu 2.9472799 0.2557009999999984 0.849250749999996
Cu 0.9826803000000002 1.2196979999999975 2.414749150000006
Cu 1.7553806000000005 2.5895977000000023 0.5340500500000047
Zr -0.09440989999999871 -0.016302100000000763 0.15415194999999926
