12

Cu 2.8270052400000054 0.08175479999999968 -2.572900749999995
Cu -1.5605105400000028 -2.1694851 -0.9677982500000013
Zr 0.5022946599999969 -0.7682351000000001 -2.681200050000001
Zr 1.0701886600000066 -2.5461850999999998 -0.4387989499999989
Zr 2.704245440000008 0.32492509999999974 0.169698750000002
Zr -2.8270052399999983 -0.00938490000000014 -2.1392002499999947
Zr 0.8126889599999956 2.2832347000000004 -1.1333980499999967
Zr -2.3082064399999993 -0.2981950000000002 0.925100350000001
Cu 0.5280896599999991 1.3425547 1.7770023500000036
Zr -0.0696047399999955 -1.2616749999999999 2.681200050000001
Zr -1.4115084399999986 2.5461850999999998 0.7679996500000001
Cu 0.1678907599999988 -0.1375052000000001 -0.2189006499999948
