13

Cu 0.2747767099999976 -1.10230065 -1.9075494000000006
Cu -0.29661919000000125 0.9396991499999992 -3.0111498999999995
Cu 1.6579425899999976 1.6066990499999996 -1.3088498000000008
Cu -1.379520190000008 -2.633501050000003 -0.5684494999999998
Cu 2.327022290000002 0.29080014999999904 0.5790496000000012
Cu -1.5490223900000046 2.0636997500000014 -1.3430505000000004
Zr -2.327022290000002 -0.32259935000000084 -0.9507489000000007
Zr 0.9928123899999974 -2.146798950000001 0.6797500000000021
Cu -1.7736241900000067 -0.7936000499999984 1.6284498999999997
Zr -2.2433201900000057 2.23340035 1.088651200000001
Cu 0.5992777099999955 2.633501050000003 0.5229506999999991
Zr 0.18537550999998587 0.3188991500000036 3.0111498999999995
Cu 0.34148060999999075 0.5238018500000017 0.08935119999999941
