11

Zr -1.886199500000001 -2.0878029000000033 0.5275099500000002
Zr 0.37559940000000136 -0.6679001000000007 -2.05519985
Cu 0.9011997999999997 -2.2784005 -0.07481985000000035
Zr -2.5987 1.1497001000000004 -0.9426298499999999
Cu -1.5740999999999987 0.6013983999999972 1.3463700500000004
Cu 0.17969939999999962 2.2784005 0.3761002499999999
Cu -0.2203993999999989 1.9986992000000008 -2.4891798499999997
Cu 1.5867010000000006 0.5926970999999988 2.47326015
Cu 2.5987 -0.38750080000000153 -0.24766995000000014
Cu -0.0372995999999981 -1.1641007000000023 2.4891798499999997
Cu 0.07309960000000171 -0.1306992000000058 0.3772098500000003
