14

Zr -1.3596515500000024 0.5160852 -3.2115001500000027
Cu -0.5803508500000021 -2.621945 2.2007007499999993
Zr -2.7724514499999984 -1.4664348999999999 0.6422023500000016
Cu -0.36525155000000353 -2.104875 -1.3670978499999968
Cu -2.920450250000002 1.4769750000000004 1.2110004499999967
Zr 1.6518497499999967 -1.9683948999999998 0.8106022499999987
Cu 2.920450250000002 0.3408952000000003 0.04580114999999907
Cu 1.4899501499999985 0.31209500000000023 -2.464899050000003
Cu -1.6575527500000007 2.621945 -0.9560985500000037
Zr -0.8496532500000029 2.3452850000000005 2.4556026499999994
Cu 0.4514484500000009 2.2440448 -1.2337970500000033
Cu 1.8218479499999987 0.21058500000000002 2.485399249999997
Zr -1.9977512500000003 -0.19718499999999972 3.2115001500000027
Zr -0.18265345000000366 0.08479510000000001 0.25830275000000213
