15

Cu -1.715200450000001 -1.2325477499999948 -2.0514983999999963
Zr 1.1400013500000021 -1.587947849999992 -2.1818008000000013
Cu -0.18659785000000184 0.9103508500000004 -2.6767006
Zr -2.2839985500000033 2.240947850000012 -1.352298699999995
Cu -2.867399250000002 -0.6199531500000006 0.08150110000000055
Zr -1.6872997500000047 -3.0205497500000007 0.04740150000000298
Cu 1.321001049999996 -2.521152449999988 0.12469869999999972
Zr -1.7929973500000038 -1.1225471499999884 2.6767006
Cu 2.867399250000002 -0.7755470500000001 0.44329839999999976
Cu -2.3243999500000037 1.6431465500000115 1.184700000000003
Cu -0.10489845000000386 3.0205497500000007 -0.19620129999999492
Zr -0.04269985000000176 2.4126472500000062 2.2887002000000045
Zr 2.402101550000001 2.1407509500000117 0.20940020000000104
Cu 1.2632007499999993 -0.4883537499999875 2.258399999999998
Zr -0.24679755000000014 -0.13605115000000012 -0.152599299999995
