13

Zr -2.831401849999999 -0.8855706000000003 -0.6977997000000045
Cu -1.326496150000004 1.8191995000000007 -0.5782013000000035
Cu -0.34239575000000144 -0.08219059999999967 -2.1043015000000054
Cu -1.0543021500000052 -2.3454505 0.8783950999999917
Cu 2.304302249999999 0.9910000999999999 2.4668959999999913
Cu 1.9687996500000011 0.10400000000000009 -2.4850998000000004
Cu 0.49869924999999427 -2.4102001 -1.0247039999999998
Zr 1.8036003500000035 -2.3429003 1.0952987000000007
Cu 2.831401849999999 0.5909195000000009 0.22349540000000445
Zr -0.7061958500000074 2.4102001 1.9094008999999943
Cu 1.0622978500000002 1.8038996999999997 -0.7639008000000018
Zr 0.07870104999999938 -0.4637603999999991 2.4850998000000004
Cu 0.5298042499999909 -0.17924980000000001 -0.2505036000000018
