13

Zr -2.1798973499999974 0.04594799999999921 -1.257999850000001
Cu 0.5436057500000047 -2.0946503000000014 -2.4407000500000002
Cu 1.2204017500000006 0.14225000000000065 -2.3510002500000002
Cu -2.394199350000001 -0.8250503999999985 1.4135003499999996
Zr -0.07030105000000475 -1.0249519000000014 2.4407000500000002
Zr 2.394199350000001 -2.645153099999998 -0.5410999499999996
Cu -0.5275993499999956 -2.7738495000000007 0.3848996499999995
Cu -1.9473991500000025 1.853748299999996 1.6884999500000006
Cu -0.9624977500000043 2.7738495000000007 -1.56739945
Cu 2.3767051499999994 0.0036468000000020595 0.7472997499999998
Cu 1.3101005499999943 2.178848200000001 -0.55769965
Cu 0.7855033499999919 1.666149100000002 2.18730025
Cu 0.30340195000000136 0.11044699999999708 -0.012999949999999316
