15

Cu -1.4039506 -1.6297492999999932 2.3788997000000016
Cu -2.5885495999999986 -1.1339530999999923 0.32910070000000147
Zr -1.136250500000001 -3.0236473000000004 -0.38259980000000127
Zr 1.1866502999999984 -1.2570533999999967 2.0661001
Cu 0.7662496000000001 -1.1693534999999926 -1.5264997999999999
Cu -1.3871507999999988 -0.4872475000000023 -1.7510003000000012
Cu 2.8896494000000015 -0.5838508999999945 -0.23309989999999914
Zr 1.5057497999999985 1.1640510000000077 -1.649300499999999
Cu -2.5833502 1.2881507000000099 -1.034100500000001
Cu -0.9593496000000012 1.9411506000000074 -2.823500599999999
Zr 0.2061490999999993 3.0236473000000004 0.624998999999999
Cu -2.8896494000000015 2.3579520999999986 1.2932996999999986
Cu 1.4367494999999995 1.0238456000000085 2.823500599999999
Cu -0.7801503999999984 1.1277504000000036 2.3672991000000003
Cu -0.551350600000001 0.2333488000000088 0.1934995999999991
