17

Cu -1.2537515999999975 0.5629959000000042 -3.1217003000000005
Cu -0.9670505000000027 -1.538299600000002 -1.788200400000001
Cu -2.8253498000000015 0.38009639999999933 -1.4228020000000043
Zr 0.1411496000000021 -3.0007018999999957 -0.26030340000000507
Zr 1.4546489999999999 -0.9734040000000022 -2.0477028000000033
Zr 2.8632487999999974 -0.5365983000000085 0.6664008999999993
Cu 0.6172505000000008 1.9401015999999913 -2.129802600000005
Cu -1.527250200000001 -2.2141036999999955 1.8497964000000024
Zr -1.9707508000000011 2.780799799999997 -0.42090220000000045
Cu -2.8632487999999974 -0.08630370000000198 1.1666984000000014
Cu 2.5648480000000013 1.8985976999999963 -0.12940220000000124
Cu 0.6998501000000026 -1.333099400000009 2.156696299999993
Zr -1.2301502000000006 0.17319480000000453 3.1217003000000005
Cu 1.5436496999999996 1.262000999999998 1.9225959999999986
Cu -0.8110523000000036 3.0007018999999957 2.144001000000003
Cu 0.29215050000000176 2.9085997999999904 0.1493949999999984
Zr -0.5291499999999978 0.23419950000000256 0.03499979999999425
