12

Cu -1.4639001499999997 -0.6585999000000058 1.5795162349999856
Cu -1.3952002499999994 0.06809999999999405 -2.432088065000002
Zr -2.0427003499999996 -2.4952010999999956 -1.3849841650000059
Cu -2.6278004499999996 0.5156936999999928 -0.40988656500000786
Zr 1.5963997500000007 -0.3613051999999968 -2.153386265000009
Cu 0.6114992500000005 -1.7308044999999979 0.8134182349999861
Cu 0.870298850000002 -2.544700600000006 -1.4737826650000017
Cu -1.17649985 2.544700600000006 -0.8446857650000084
Zr 2.6278004499999996 0.4057998999999981 1.1695125349999955
Zr -0.3007997499999986 1.4535980000000066 2.432088064999995
Cu 1.367199450000002 2.3106002999999973 -0.9796877650000084
Cu -0.1487002500000001 0.08399960000000561 -0.17968476500000463
