13

Cu -0.8862495499999987 2.461799599999999 -0.06905040000000184
Cu -1.1981506499999988 -1.7615965999999972 -1.8807501999999996
Cu 0.60934825 0.4589995999999914 -2.8511500000000005
Cu -1.4575500499999983 2.3829040000000035 -2.489650300000001
Cu 1.2262497499999974 2.495300300000004 -1.351450500000002
Cu -2.263049949999999 -1.9723968000000056 0.5195498000000001
Cu -2.310150150000002 0.6141052000000045 -0.9833494000000016
Cu 0.8388481500000005 1.7602996999999974 1.6713498999999992
Zr 2.310150150000002 -0.8218993999999995 -0.6186509999999998
Zr -1.596752150000004 0.1811982000000043 2.0224489000000005
Zr 1.002948749999998 -0.6626969000000074 2.8511500000000005
Cu 0.4644508499999951 -2.495300300000004 0.7225488999999996
Cu -0.21005245000000272 0.12519839999999505 -0.15455109999999905
