15

Zr 2.6551494500000015 0.29175489999999993 -1.8732299499999998
Cu 0.5277500499999999 1.9545652000000002 -2.0952300499999996
Cu -0.014650349999998369 -0.5288147999999997 -2.7960100499999996
Cu -2.8875503499999997 0.7135951 -0.43177034999999897
Cu -2.684450049999997 -1.6597847999999997 0.0017996500000005966
Cu -1.45095055 -0.6564447999999996 2.02610975
Cu -0.6657504499999991 -2.5386149 0.8842001499999999
Cu 0.6580506500000016 -0.10105499999999967 2.7960100499999996
Cu 1.4736500500000016 -2.2021148999999998 -1.4620099499999997
Cu 2.8875503499999997 -0.025265000000000093 0.9444103500000001
Cu 1.7735500500000025 -2.1713548 1.2480803500000004
Cu -1.8120498499999993 2.5386149 -1.43239025
Cu -0.68524925 2.4985454000000002 0.7836999500000008
Cu 2.0244503500000004 2.1916553 1.5915098499999996
Zr 0.36504945000000255 0.19439530000000005 0.041409550000000905
