13

Zr -0.1399050000000015 -0.8822994500000014 -2.656808015000003
Zr 1.3525953 2.0483989499999957 -2.420304515000005
Cu -0.606305100000001 -2.02269935 -0.2695019149999993
Zr 2.0069951999999995 -2.72849845 -0.7656033149999999
Cu -1.7504053000000015 -1.2120991500000038 1.6841952849999942
Zr -2.643795 0.12259864999999692 -1.1444027150000053
Zr 0.7445955 0.758100449999997 2.656808015000003
Cu -1.566704800000001 1.3585987499999952 1.1161944850000012
Cu -0.7940045000000007 2.72849845 -0.7645046149999999
Cu 2.643795 -0.10330014999999904 -1.1110012150000088
Cu 1.8717946999999997 -1.053598449999999 1.1536929849999993
Zr 2.0577955 2.384099949999996 0.7075945850000025
Cu 0.39789479999999866 0.3946017499999961 -0.44930391500000866
