15

Zr -0.883598199999998 1.1918703000000006 -2.933599450000001
Cu -1.8889007999999983 -1.1766695999999994 -1.5395011500000013
Cu -2.4108009000000017 1.4547706000000007 -0.8399009500000023
Cu -2.501701399999998 -1.35954 0.8838996499999983
Cu 1.8068009000000025 -1.7105297999999998 0.11569974999999921
Zr 1.7696991000000004 -0.2859100999999997 -2.9312000499999993
Cu 1.0837022000000012 2.4966397999999996 -1.6872005500000018
Cu 0.08230219999999733 -2.6628098 -1.3362998500000014
Cu -1.1261978000000035 0.349299900000001 2.1152000500000003
Zr -0.2607993999999998 -2.81074 1.1459999499999984
Cu 2.501701399999998 0.7666402000000003 0.32919884999999915
Zr 1.4113998000000016 -0.45017959999999935 2.933599450000001
Cu -0.815601400000002 2.81074 -0.19320105000000076
Zr 1.059001999999996 2.705339900000001 1.5476989499999991
Zr 0.0033989999999981535 0.15527010000000008 -0.16720004999999993
