13

Cu 0.7746010000000005 -1.768501300000004 -1.5083045500000054
Zr 2.9248008999999975 -0.4722022999999993 -1.6797981499999963
Cu -0.8675995000000007 2.2910004000000015 0.5805015499999939
Cu 0.03400040000000004 -2.000400599999999 2.3848991499999954
Cu -0.48559950000000285 -2.2910004000000015 0.042995449999992275
Zr 2.579002499999998 -0.9003028999999998 1.6075019499999996
Zr -1.984100299999998 -0.28090290000000095 2.5835990500000037
Cu -2.9248008999999975 0.9114989999999992 0.49290084999999806
Zr -1.5016975000000023 -0.004303000000000168 -1.730602250000004
Cu 0.790699 1.413200400000001 -2.5835990500000037
Cu 0.43750000000000355 1.7520980999999978 2.2150001499999945
Zr 2.0757026999999972 2.043598199999998 0.05820084999999153
Cu 0.33200079999999943 -0.16610340000000434 0.6224021499999992
