13

Cu -0.5351485499999988 0.05117985000000047 -2.3727492499999983
Cu -0.16275024999999843 -1.6830806500000008 1.2798500500000003
Zr 0.8490486500000038 -2.6692800499999993 -0.950748449999999
Cu 1.8755493500000036 -0.1506204499999999 -2.5723495499999984
Zr 2.091251350000004 -0.4937200500000003 2.5723495499999984
Zr -2.742248550000003 -0.060120550000000605 -0.08905024999999966
Zr -1.2716484499999972 0.13708025000000035 2.467651350000004
Cu -0.4418487500000019 2.6692800499999993 1.7851486500000036
Zr 1.3999520499999996 2.4746799500000005 -2.4922485499999993
Zr -0.9371490499999986 2.2822799499999995 -0.7235488500000002
Cu 2.742248550000003 -0.37932005000000046 -0.002048449999996649
Cu 2.0810508500000005 1.9670801499999993 0.6082497499999988
Cu 0.30165105000000025 0.29067994999999947 0.13484954999999843
