15

Zr 0.05210119999999918 -2.29910045 -2.3413248500000003
Zr -1.2540015999999987 -3.2223000500000003 -0.031894750000000194
Cu -2.2942999999999962 -0.9288992500000015 -1.6360950500000007
Zr 1.3218994000000102 0.31189965 -2.6573047500000007
Cu -0.2686003999999933 2.049000249999998 -1.906294850000001
Cu 2.540595999999997 1.4291996500000002 -0.32379535000000015
Zr 0.5823975000000026 -1.7128005499999999 2.6573047500000007
Cu 1.591201800000011 -3.087500150000001 0.2615051500000005
Cu -1.8595007999999957 -0.9523005500000012 1.6345052499999992
Cu 1.772598300000002 1.0325989499999997 1.9733047499999996
Zr 0.20949560000000034 3.2223000500000003 0.5719051500000001
Cu -1.0280989999999939 1.5523992499999997 2.3670053500000003
Zr -2.827499399999997 1.504099450000001 -0.20599455000000066
Cu 2.827499399999997 -0.9906992499999996 -0.9378948500000002
Zr -0.023704499999990247 -0.2534003500000006 0.03670494999999985
