15

Zr -2.3794975500000035 -1.091354349999996 -1.7749491000000006
Zr 1.5013999499999997 -2.446754449999993 -1.0361509999999967
Zr -1.663398749999999 2.800651550000005 -1.0712499999999991
Cu -0.0018997499999997558 0.08634945000000727 -2.8108492
Cu 0.6194991499999958 2.0713500499999995 -1.3459501999999972
Cu 2.243099149999999 -0.25375365000000016 -2.2584504999999986
Cu -2.8726005500000014 -1.3339538499999932 0.9172487000000018
Cu -1.8155975499999997 -0.5397491499999987 2.778550100000004
Zr -0.041400950000003434 -2.800651550000005 1.3122492000000037
Cu 2.250301350000001 -0.6888504499999968 0.8106507999999977
Cu 0.2886008500000017 0.6899490500000027 2.8108492
Cu -2.657398149999999 0.6991500500000072 0.1828507999999971
Cu -0.9983978500000035 2.087547250000007 1.783650399999999
Cu 2.8726005500000014 1.551444949999997 -0.020850199999998154
Zr 0.04870224999999806 -0.05785374999999959 -0.18664840000000282
