12

Cu 1.0781479000000012 0.6176382200000035 2.318099950000004
Zr -1.790351900000001 -0.358861619999999 -2.318099950000004
Zr -1.4629516000000002 2.4328591200000034 -0.3073959500000001
Cu 0.5379485999999964 1.3263552200000035 -2.1576003499999956
Zr 2.554149599999999 1.5542092200000042 -0.2946014500000018
Cu -1.1625519000000004 1.014814219999998 1.873603849999995
Zr 1.8275490000000012 -0.9293649199999976 -2.2219009500000055
Cu -0.3110504000000027 -2.4328591200000034 -0.8902969499999926
Zr -2.554149599999999 -1.0252588200000048 0.5218048499999952
Zr -0.07725149999999914 -1.9338586200000094 2.000000049999997
Zr 2.4579506 -1.4382608199999964 0.9530030500000066
Cu 0.2611504000000018 0.009175220000003037 -0.10879515000000595
