16

Zr -0.43249895000000294 2.105150250000001 -1.5779991500000001
Cu -0.7596015500000064 0.02395064999999974 -3.3247985500000006
Cu 1.2725028500000022 -2.3819503500000003 1.0138015500000002
Cu -2.023502349999994 0.19565014999999875 -1.1324005500000034
Cu -2.574802350000006 0.14445124999999948 0.8746986499999956
Cu 2.7422981500000034 -0.31864925 1.1129989499999944
Cu -1.9160957500000038 -2.569749850000001 1.8674011499999956
Cu -0.7224006500000044 -2.059949849999999 -0.515201550000004
Cu 0.19299695000000128 -1.518150349999999 2.989898649999997
Cu 1.6777991500000056 1.6500511499999995 0.6796989499999988
Zr 1.9654044500000012 -0.24164954999999821 -1.8907012500000029
Cu -2.7422981500000034 2.569749850000001 0.5868987499999996
Cu -0.46120074999999616 2.3984508499999997 1.5509986500000004
Cu -1.600696550000002 -0.27935025000000024 3.0861015499999986
Zr 1.062503850000006 1.5544510500000008 3.3247985500000006
Cu -0.20129775000000194 0.12375065000000163 0.3213997499999941
