11

Zr 0.6765203499999997 -0.31305129999999437 -2.4965515499999995
Zr -1.4588804499999997 -2.323148700000001 -0.1842498500000076
Cu -2.82242015 0.011251400000002576 -1.7422485500000064
Cu 0.48991965000000004 -1.0247516999999995 0.9157486499999905
Cu 2.82242015 -0.27174959999999615 -1.0838469500000016
Cu -1.5152797500000004 -0.2762508999999973 2.1081542499999912
Zr -2.5357502500000004 1.7799510000000005 0.7377548499999946
Zr -1.1815795499999995 2.323148700000001 -2.2290496500000003
Zr 1.3547201499999995 2.239648800000001 -0.256050050000006
Zr 0.16362004999999957 1.9952487000000012 2.4965515499999995
Cu -0.5877800500000001 0.36495010000000505 -0.46414945000000074
