13

Cu -1.0369546499999993 0.08304970000000367 -1.6920013500000053
Cu -2.42813515 -2.3346518999999972 -1.0483016500000062
Zr 0.6825353499999993 -2.2439536999999916 -1.6442947499999931
Zr 1.491834850000001 0.2340506999999974 -2.880699150000005
Zr -1.76941505 1.9771537000000023 -0.20169824999999975
Cu -2.4069550499999997 -0.5737495999999993 0.3088989500000068
Cu 1.675034750000001 -1.9929466999999903 0.6968002500000026
Cu -0.9589946500000002 -2.0671502000000004 0.9278030500000014
Zr -0.11204504999999987 -0.06695179999999823 2.880699150000005
Cu 0.8018352500000008 2.2846487999999994 -0.8974991499999945
Cu -0.04996465000000061 2.3346518999999972 1.9537048500000012
Zr 2.42813515 0.5448493000000099 0.6787033499999993
Cu -0.1176049499999996 -0.2943534999999997 0.16989905000000505
