12

Cu -0.5364999499999996 0.31628464999999917 -2.5259494999999994
Zr -2.361399649999999 0.8021845500000007 0.1820508000000025
Cu 2.1519002500000006 -1.01691485 0.49334909999999965
Cu 0.11299995000000251 2.73918485 -1.0168513999999966
Cu 2.361399649999999 1.1527848500000006 -0.8325519999999962
Cu -1.5223989499999995 -1.56901505 -0.0553492999999996
Zr 0.841300050000001 -1.7392154500000006 -1.3343524999999978
Cu 0.2932004500000005 -2.73918485 1.5792484000000009
Cu 0.2677011500000006 -0.26571514999999923 2.5259494999999994
Zr 1.9330015500000002 1.8341851500000006 1.7509480000000046
Cu -0.63440035 2.24408475 1.3110485000000018
Cu 0.149201350000002 0.32428495 -0.14635269999999778
