14

Zr -2.4708848 0.10743499999999973 -1.2683992499999999
Zr -2.4433149999999997 0.8691552999999996 1.5203999499999998
Cu -0.7902349999999996 -1.8682349000000003 -2.006098849999999
Zr 0.8121848999999997 0.1223052 -2.6698999499999996
Cu 2.4564853 -0.7284348 -1.1197996499999991
Cu 0.9067855000000011 -2.8141449 0.1161012500000016
Cu -0.3307547000000004 1.9869149 -0.39400014999999833
Zr -1.8844946999999999 -1.9115048000000001 1.1113004499999999
Cu 2.263385300000001 -0.9265349 1.7518015500000015
Cu -0.07542460000000029 -1.3110149000000002 2.6698999499999996
Cu 1.1392847000000006 0.8636952999999998 2.3859013499999993
Zr 2.4708848 1.9282552999999996 -0.2990998499999993
Cu -0.47466509999999973 2.8141449 2.141400250000002
Cu 0.20078519999999989 -0.1633247 0.20419974999999901
