13

Cu -1.39850225 -1.9715500000000006 -0.16444965000000167
Zr -2.3156013500000014 0.34004970000000156 1.0848483500000015
Cu -0.7320975499999989 -2.2980499000000023 -2.792451849999999
Zr -1.6337012500000085 0.17535010000000284 -2.2103481500000015
Cu 0.9008980500000021 -0.5261497999999989 -2.468351349999999
Zr 1.9852028500000003 -2.685451499999999 -1.0318508499999979
Cu 2.3156013500000014 0.29595179999999743 -0.15865134999999952
Cu 0.24029924999999963 1.9127501999999978 -1.8638515499999997
Cu -1.3542976499999995 2.685451499999999 -0.4017505500000027
Cu 0.10719685000000112 0.6661490999999984 2.792451849999999
Zr 1.9221992499999985 -1.069950200000001 1.8714504499999975
Zr 0.7480964499999985 2.3468513000000044 0.756250350000002
Cu 0.08410264999999839 -0.2601508999999993 -0.2479495500000013
