11

Zr 0.9279002500000004 0.7495498999999981 -2.8046503499999993
Cu 0.3802985499999991 -1.8081512000000046 -0.9207505500000011
Cu -2.5207996500000007 -2.3409499999999994 1.1725492499999994
Cu -2.0085009499999984 0.8173484999999943 1.2804498500000001
Zr -2.430601150000001 -0.9735527000000062 -0.974249750000002
Zr -0.7978000499999993 -1.0220527000000033 2.8046503499999993
Cu 1.0256004499999989 1.2838477999999967 2.117249449999999
Cu 1.3314990500000015 -1.8493499 1.2119493499999976
Zr -1.0914001499999983 2.3409499999999994 -0.775349649999999
Zr 2.5207996500000007 -0.14615249999999946 -0.4546499500000003
Cu -0.2511005500000003 0.06864929999999703 0.42084984999999975
