15

Cu -2.0202483999999927 -2.3331398000000005 -1.7091521999999983
Cu 0.3847503999999944 -2.8382900000000006 -2.254951499999997
Cu -1.731849700000005 0.19246979999999914 -3.0727501000000004
Cu -1.544448800000005 2.085260199999999 -0.03755189999999686
Cu -2.756050100000003 -0.25514000000000037 -0.5157509000000005
Cu 0.6239471999999964 1.4653498999999992 -2.8254509
Cu 2.768951399999999 0.21906019999999904 -0.30515290000000306
Zr -2.0004499999999936 -2.2261100000000007 1.5144500999999977
Cu -0.673454299999996 -0.5190198000000001 3.0727501000000004
Zr 1.1699524000000068 -2.3657000000000004 0.33944699999999983
Cu -0.1402510999999933 1.3295299999999997 2.1095467000000028
Cu -2.768951399999999 1.0645401999999993 2.0986480999999984
Zr 1.1579513999999946 2.83829 -0.1842536999999993
Cu 2.374252300000002 -0.8024299000000004 2.0562477
Zr -0.050453199999999754 -0.01200990000000024 -0.16085050000000223
