15

Zr 1.5822453500000004 -1.4506997500000018 -1.2494468500000053
Cu 0.5706448500000003 0.7037992499999994 -2.54475025
Cu 1.4795451499999994 -1.2295007499999997 1.4021492500000008
Zr -2.2715649500000006 -1.3860006499999997 0.37495044999999294
Cu -3.0629448500000005 1.1899995499999996 0.046352349999999376
Cu -1.7551350500000003 -0.26010035000000187 -1.8373451499999973
Cu -1.2423844499999999 1.8884992499999989 1.8292503500000024
Cu 3.0088448500000005 0.857400049999999 0.9506492499999908
Zr -0.8643546499999997 2.461400049999998 -1.414844550000005
Cu -0.07455495000000001 -2.8074998499999992 0.5881538499999905
Zr 1.2284455499999996 1.4296999499999998 2.54475025
Cu -0.7327846499999997 -0.5992994500000002 2.437549650000001
Cu 3.0629448500000005 2.03929995 -0.7492485499999972
Cu 0.9929452499999996 2.8074998499999992 0.3107490499999912
Cu 0.5448450499999988 0.5148000499999981 0.1698493499999998
