16

Zr -2.475952249999999 -1.176246599999999 -2.461303749999999
Cu 0.00575244999999569 0.856750500000004 -2.948600749999997
Cu 0.25554654999999826 -1.8910522000000043 -2.7819061499999975
Cu 0.745246850000008 -2.206748899999994 0.005195650000004548
Zr 2.470146149999998 0.3256530999999967 -1.9081039499999974
Cu 1.0863494500000073 2.695350700000006 -1.3974990499999933
Cu -2.60784915 -0.6299515000000042 -0.022399849999999333
Zr -0.8571549500000017 -1.7210464000000059 1.6464996499999955
Cu -1.3538514500000005 -2.8681488 -0.9559020499999917
Zr 2.60784915 -0.7447509999999937 1.1530990500000087
Zr 0.6690520499999977 0.5578536999999955 2.948600749999997
Cu -2.604652449999996 1.468849199999994 -1.1911010500000003
Cu -0.5225524499999992 2.8681488 0.6201934500000021
Zr -2.2530518499999985 1.7367478000000034 2.4390946500000013
Zr 2.169845549999998 2.0094528000000054 0.7959976500000039
Zr -0.49295045000000215 0.3428497999999962 -0.0973052499999909
