14

Cu -1.5190506499999987 -0.9184989499999929 -0.9620991000000032
Cu -1.2843513500000032 2.8709983500000007 -0.6278019000000015
Cu -0.5017509500000035 -2.8709983500000007 0.2921008999999941
Zr -0.2943496500000027 1.048702249999998 -2.4391002999999998
Zr 0.15755084999999802 -1.231998449999999 2.4391002999999998
Cu -2.576549550000001 0.8560981500000011 -0.31020170000000036
Cu -2.080249750000002 -1.4022026499999996 1.1356982999999943
Cu -2.2022495499999994 0.3348045500000083 2.432798399999996
Zr -1.0903510500000042 2.3404045500000095 2.237501099999996
Zr 1.6740493500000024 2.7925987500000033 -0.6727009000000024
Cu 2.576549550000001 -0.8501014499999897 0.8408984999999944
Cu 1.4658508500000007 1.2665977500000096 1.8475016999999951
Zr 2.0378494500000013 -0.022899649999992278 -1.5906009999999995
Cu -0.07324984999999806 0.23279955000000285 0.20020099999999985
