16

Cu -0.10525134999999963 -1.3547253499999998 -2.948600750000004
Cu 2.134651250000001 0.010775050000000341 -2.399799250000001
Cu 1.0920486499999988 -2.8719553499999995 -1.954502050000002
Zr -0.6373481499999976 1.65727475 -3.19490055
Zr -2.97145085 -0.11042545000000015 0.64509975
Cu -1.2683486499999965 -3.22637515 -0.3217010500000015
Cu 2.5070495500000014 -1.723485450000001 1.2528000499999976
Cu 2.97145085 0.25027514999999934 0.10779954999999575
Cu -2.677150749999999 -0.28072505000000003 -2.150299050000001
Zr -1.371849049999998 3.22637515 -0.4967002500000035
Zr 1.3981513500000027 0.09667545000000022 2.4406013500000014
Zr -0.8280487499999971 1.83887525 2.099300450000001
Zr 1.7326507500000012 2.2418751499999994 -0.7505988500000029
Cu -0.07815174999999996 -2.2149949500000004 1.9010009499999967
Cu -1.1486511500000027 -0.6118254500000004 3.19490055
Zr -0.07244875000000306 -0.10052535000000073 -0.11610025000000235
