15

Zr -0.319347300000004 -3.1188497500000008 -1.5596465999999936
Cu -0.18864820000000293 -0.5064497499999998 -2.7350464000000017
Zr 1.927051700000007 1.0656499499999992 -2.248550399999999
Cu 1.850551699999997 -1.2532511499999988 -1.9454498999999998
Zr -2.9476508999999993 -0.9758501500000012 -0.4710464999999999
Cu -0.45664589999999805 2.112349449999998 1.293151800000004
Cu -1.2402457999999967 -2.07695105 1.573753300000007
Cu 1.842052499999994 -2.958550449999999 0.05915070000000355
Cu 1.613849700000003 -1.3530512500000018 1.5906525000000045
Cu -1.685649799999993 1.8315496500000013 -1.3102492999999953
Cu -1.1080512000000056 -0.07295135000000208 2.7350464000000017
Cu 2.9476508999999993 0.39924915000000105 -0.013847400000003063
Zr 1.6830558999999994 0.9306497499999988 2.5422516
Cu 1.0559503000000063 3.1188497500000008 -0.4614487000000054
Zr -0.0021474999999924194 -0.21815015000000137 -0.07105260000000158
