12

Cu -1.9269009000000032 -1.6143345999999998 -1.0946502500000008
Zr -0.8441981999999975 -2.4382949000000003 1.1964492500000006
Cu 1.3855990999999968 -0.8014245 1.1954497500000016
Cu -1.9322987000000005 2.2282758 0.3858489500000033
Cu 0.29640010000000316 -0.9246944999999998 -1.9462509499999996
Zr -1.3771992000000033 1.2866549999999992 -2.837749549999998
Zr 2.6051997999999976 0.6504555000000001 -0.6541481499999975
Zr 0.7743014999999964 1.9537148999999991 2.268951350000002
Cu 0.2505016000000033 2.4382949000000003 -0.7464485499999967
Cu -2.6051997999999976 0.41675519999999944 1.417850450000003
Cu -0.7134991000000035 -0.23720450000000026 2.837749549999998
Cu -0.41760060000000365 -0.05579470000000031 -0.047149650000001486
