15

Zr -1.5404987000000006 2.8220023999999952 -1.5221519500000014
Cu -0.7475986000000034 -2.406597100000006 -2.0150528500000036
Cu -2.2207012000000006 0.2511024999999947 -2.0549507500000033
Zr -2.4912014000000013 -1.5825996999999958 -0.2590523500000046
Zr 0.6491984999999971 0.7576026999999996 -2.6603508500000004
Cu -0.032598499999998864 2.8615990000000053 0.6302528499999909
Zr 2.6819018999999997 1.7414970000000025 -0.981250750000001
Zr 2.8355998999999983 -1.1107979000000014 -0.5530509499999994
Cu -0.30069920000000394 -2.8615990000000053 0.9151496500000036
Cu -1.4429988999999992 -1.292201999999996 2.630352049999999
Zr -1.3192005000000009 1.5352973999999975 2.6603508500000004
Cu 1.806699799999997 0.9090995999999976 1.5161476499999935
Cu -2.8355998999999983 1.1769980999999987 0.017650549999999043
Cu 1.5672016999999983 -1.5921973999999963 1.9093513499999943
Zr -0.26230050000000205 0.09440230000000582 0.14805214999999805
