13

Cu -0.7714499999999997 0.6637399500000001 -2.5668998000000007
Cu -0.6881504000000014 -2.3136598499999996 1.0455002999999996
Zr 2.0161504999999984 0.026940050000000326 -1.4619003000000008
Zr -0.016150400000000786 -2.15106995 -1.6943994000000009
Cu 1.4913491999999984 -2.5506398499999996 0.27680059999999873
Cu -2.611550300000001 -0.7259600499999994 -0.40829990000000027
Zr -2.4412498000000014 0.45663995000000135 1.8144001999999988
Cu 2.611550300000001 -0.4267094499999988 1.0119003999999991
Cu -1.2973499000000004 2.5506398499999996 -1.1332994000000012
Zr -0.11645030000000034 2.2868401499999997 1.5412001000000002
Cu 2.5408507 1.947840450000001 0.2675004000000003
Zr 0.5569506000000004 -0.6295101499999998 2.5668998000000007
Cu -0.040349900000000716 -0.16045974999999935 0.018200399999998673
