14

Cu -0.8718509999999995 -1.5983500499999996 -1.3770504499999952
Zr -0.7106513999999997 -2.7802500500000003 1.2838497500000052
Zr 2.159149199999998 -0.48164984999999927 -1.3712482499999972
Cu 1.1657486000000006 -2.6721501499999993 -0.7176494499999997
Cu -2.3170509000000017 -0.6217503500000001 0.5857486500000029
Zr -0.24825099999999978 1.8265509499999988 -2.57715035
Cu -2.1481513999999997 0.934350450000001 -1.0639514500000011
Zr 2.394149800000001 -0.7506499500000006 1.771249749999999
Cu -0.02235029999999938 0.26304954999999897 2.446550349999999
Cu 1.9413489999999989 2.023150949999999 -1.5081501499999952
Zr -2.394149800000001 1.463349850000001 2.270349450000001
Cu 1.4969500999999994 2.308450250000001 2.57715035
Cu 0.8139496000000008 2.7802500500000003 -0.013750049999995184
Cu 0.07094959999999872 0.43065025000000023 -0.01614944999999679
