13

Zr -1.3105993499999986 -2.73919875 -0.027900649999999416
Zr -2.8599004499999996 -1.2977008499999982 -1.4559020499999988
Cu -2.7660989500000017 1.0468997500000015 -0.4738006499999976
Zr -2.5554989499999987 -0.44959834999999515 2.032999050000001
Zr 2.8599004499999996 -1.1796017499999962 -0.6925010499999971
Cu -0.2254991499999992 -0.6396999500000007 -2.258201549999999
Cu -1.0905008499999997 1.3981990500000023 -2.3719005499999994
Cu 1.494700449999998 2.132200250000004 0.06289865000000106
Cu -0.3250990500000004 1.056501350000005 2.3719005499999994
Cu 0.01780034999999991 -1.362199849999996 2.0731983499999984
Zr 2.2873983499999984 0.6251010500000049 2.1492977500000023
Zr -1.58070075 2.73919875 1.3843975500000028
Cu -0.5259007499999999 -0.09879875000000027 0.2444992500000005
