15

Cu -0.9367999999999981 -2.9521007499999996 0.1732997499999982
Zr -2.448400499999998 1.4969004499999983 0.6452007500000008
Cu 0.5149001999999996 -0.7511997500000014 -3.2137012499999997
Zr -2.6357001999999987 -1.503700349999999 1.8234005500000023
Cu -2.4269999999999996 -1.3365994500000014 -0.8057003500000022
Cu -1.134000799999999 2.260400650000001 -1.5781994499999996
Cu -0.3977012000000002 -2.4264012500000014 -1.857198750000002
Cu 1.6113986999999987 -2.2698002499999994 1.4885005499999977
Cu -0.3001995000000015 -1.0974999499999996 2.6854000499999984
Zr 2.6357001999999987 -1.4766007499999994 -1.4847011499999994
Cu 2.4741992999999987 0.5517005499999996 0.531000149999997
Zr 0.8661002999999994 2.9521007499999996 0.08559995000000242
Cu 1.8397998999999992 1.1578006499999987 -1.7730007500000013
Zr 1.0039997000000014 0.7812003499999989 3.2137012499999997
Zr -0.18589970000000022 -0.22120095000000006 0.054601650000002167
