12

Cu -1.9764022500000031 0.06935320000000189 -2.5639991000000038
Zr 0.47629934999999435 1.4448527999999996 -2.068500500000006
Cu -0.3922996500000018 -2.2791500000000013 0.8565024999999906
Cu -0.7383994499999993 -2.1168498999999983 -1.681800900000006
Zr -1.9920005500000038 2.2791500000000013 0.3054008999999951
Zr 2.153499649999997 -1.980150199999997 -0.5053977999999972
Cu 2.74110035 0.8849507000000045 -0.39310079999999914
Zr -2.74110035 -0.6674480000000003 0.3727988999999923
Cu -0.8409995500000029 0.06744960000000333 2.5639991000000038
Zr 1.0295982499999958 1.787851400000001 1.4286994999999933
Zr 1.6485977499999969 -1.413347199999997 2.3039971000000037
Cu 0.29629894999999706 0.04345140000000214 0.22449869999999805
