12

Zr -1.0672989500000014 1.1096000499999974 -2.6885149499999996
Cu -2.83769985 -0.7124062500000008 -1.4744451499999998
Zr 1.7900009499999996 1.8273963500000008 -1.4371950500000001
Cu 1.624599449999998 -0.9584007500000098 -1.8995850500000002
Zr -0.862400049999998 -2.5778999500000026 -1.3935949500000002
Cu -0.8243980499999992 -2.0469017500000035 1.3578045500000004
Zr -2.7045974500000014 0.19289784999999426 0.8541948500000003
Cu -0.36330035000000294 0.07999805000000038 2.6885149499999996
Zr 2.83769985 1.088695450000003 0.9821151499999998
Zr 1.568599650000003 -2.0153999500000026 0.7496249499999998
Cu -0.6730003500000024 2.5778999500000026 0.04745514999999978
Cu -0.12019734999999798 0.17869944999999632 -0.09446504999999972
