17

Zr -0.7584495500000017 -3.1838989499999997 -0.13475129999999957
Cu -1.6570510499999997 1.8647994499999996 -0.3790502
Zr -1.8474502500000014 -0.8717003499999976 -1.8458509000000003
Cu 2.3285522500000013 1.0461997499999995 -1.1965512999999977
Zr 0.04265215000000211 1.7066001499999999 -3.0880498999999997
Cu 1.1466522500000025 -1.169899049999998 -2.633049999999999
Cu 1.6714515500000005 -1.9570007499999988 -0.6814507999999986
Zr 2.869251249999998 -0.6312981499999992 1.4252502000000025
Cu 0.6084518500000016 3.1838989499999997 -0.7348508999999996
Zr 0.2529488500000028 -1.5018997499999998 2.9910498000000008
Zr -2.749248450000003 -0.737800649999997 1.202448900000002
Cu -1.4225500499999981 0.6626014500000039 2.935050000000002
Cu -2.869251249999998 1.9414023500000042 1.3737498000000006
Cu 1.0928497499999992 1.306400250000003 3.0880498999999997
Cu 2.0963516500000026 2.0759009500000047 1.0250502000000008
Cu -0.7734488500000012 3.088100350000005 1.811049500000001
Zr 0.08195115000000186 0.2775001500000016 0.2875490000000003
