11

Cu -0.7035484000000007 -2.5525474000000017 0.27160259999999425
Zr -1.510648699999999 2.5525474000000017 -0.08279800000000392
Cu -2.27285 -0.11155319999999591 -0.40149690000000504
Zr -1.2880497000000002 0.7682533000000049 -2.7621994
Cu 0.8016510000000014 -1.120647499999997 -2.188797000000001
Zr 2.27285 1.2396507000000057 -1.757598900000005
Zr -2.002550099999999 0.9772529000000034 2.3757018999999957
Zr 0.07285130000000173 -1.054653199999997 2.7621994
Cu 0.7742500000000003 1.3651465999999957 0.9139021999999954
Cu 1.8199501000000016 -1.2081489999999988 0.5538024999999962
Cu -0.16244889999999934 0.08064650000000739 -0.2342988000000048
