15

Zr -1.3733996500000014 0.028959550000000167 -2.1703510000000037
Zr 1.1457004499999979 1.06176015 -2.9753513
Cu 1.7236995499999974 -1.2258703499999997 -0.5306492000000063
Cu 0.10510064999999891 2.83486005 -1.2273503000000048
Zr -3.1364002499999994 1.2189600500000002 -0.3211498000000006
Cu 3.1364002499999994 0.5399897500000006 -0.769548400000005
Cu -2.07620045 -2.2260701500000004 -1.4606495000000024
Cu -2.4160002500000015 -1.35005015 0.949350299999999
Zr -0.03980065000000188 -2.83486005 0.23814959999999985
Zr 2.034900649999999 -1.2855102500000002 2.067152
Zr -1.1187992500000004 -0.23988034999999952 2.7577494999999956
Cu 1.5435009500000003 2.3465597499999995 0.4273509999999945
Cu -1.33889965 2.2047598500000007 1.143251399999997
Zr 1.2980003500000006 1.28185965 2.9753513
Cu -0.2681999500000014 0.3209002499999998 -0.043348300000005224
