12

Zr -2.382949850000001 -1.1550998499999992 -1.436755400000001
Cu -1.529550549999998 -2.3731994500000013 0.7644251000000004
Cu -0.4134502499999986 0.05509945000000016 -2.9251249
Zr 0.16564945000000186 -2.9986000500000003 -1.1891949000000004
Cu 1.5099487500000013 1.34429935 1.4202248999999991
Zr 2.382949850000001 -0.42600064999999887 -1.2061054000000002
Cu -1.9056510500000012 0.9697990499999989 0.11062510000000003
Zr 0.39875035000000203 2.9986000500000003 -1.1632254
Zr -0.5636501499999991 0.22739984999999763 2.4203250999999995
Cu -0.9206504499999983 -2.178699550000001 2.9251249
Zr 2.2977504500000006 -1.9626006500000024 1.8007247999999993
Cu -0.07444954999999887 -0.2402000500000021 -0.07587550000000043
