14

Cu 0.6946010499999993 -0.14559555000000302 -2.980348600000003
Cu 0.38789944999999904 -2.6581001500000028 0.27924919999999886
Zr -1.7327995499999993 -1.737499249999992 -1.9336491000000002
Cu -2.30920025 1.1588019500000044 -2.1659489
Zr -2.2847003500000014 0.4459037500000065 0.6004504999999973
Zr 1.0778007500000015 2.0890998500000038 -1.6066493999999985
Zr 2.243700050000001 -1.806697849999999 -1.4718494
Cu 2.30920025 -1.319896749999991 1.302549299999999
Cu 1.647501049999999 0.9492988499999981 0.9801502000000006
Cu -1.4043006499999997 2.6581001500000028 -0.6229496000000019
Cu -1.750200249999999 -2.16099934999999 1.8296488999999987
Cu -0.8165988500000019 2.147602049999996 1.6943493000000025
Zr -0.01339915000000147 -0.16099934999999022 2.980348600000003
Cu 0.4055996499999992 -0.49929434999999245 -0.5766505999999971
