15

Cu -2.9924964500000044 -1.33460045 -0.39337898499999824
Cu 1.2771034499999985 -2.33519935 0.3477909150000045
Zr 0.419200950000004 -1.2719020499999978 3.246210815000005
Zr 3.14410015 -0.42040065000000126 1.0156909150000004
Cu -1.0222968500000036 -2.789701449999999 -0.2901389849999987
Cu 2.7903023500000046 -1.2473010500000008 -1.6587190850000013
Cu -1.9231986500000033 0.1410007499999999 2.4762609150000046
Zr -3.14410015 1.2087994500000043 0.15938091499999985
Cu 0.9227028500000074 2.315500250000003 0.747090815
Cu -0.7110023500000011 2.789701449999999 -1.0053388850000005
Zr 0.9203987500000039 1.429800150000002 3.1305811149999982
Cu -1.5002021499999927 -0.6811999499999963 -2.258410215000005
Zr 1.020397150000008 0.11390115000000023 -3.246210815000005
Cu 2.1520042500000045 1.0904980500000043 -0.8195590849999945
Zr 0.04729855000000782 -0.06770125000000249 0.006361115000004247
