14

Zr -2.024951999999999 -0.8259506499999958 -2.660949699999996
Cu 0.537647199999995 -2.444847050000007 -1.6998518999999916
Cu 0.843151000000006 -0.35284425000000397 -2.4463500000000025
Cu -1.0421486000000044 1.6853485500000005 -1.492851199999997
Cu 2.5045510000000064 0.9275512499999934 -1.5077513999999965
Cu -2.607448599999998 0.46935274999999876 -0.2833556999999942
Zr -2.038547600000001 -2.4050445499999995 -0.21265410000000173
Cu -0.7090493000000038 -0.8671492499999971 2.197044400000003
Cu 0.2956505000000078 -2.817550650000001 0.8135453000000084
Zr 2.607448599999998 -0.9945449500000052 -0.13394919999999644
Zr 1.8563498999999979 -0.5266494500000078 2.660949699999996
Cu -0.2659493000000026 1.510154749999998 1.4452439000000012
Cu 0.7657508000000064 2.817550650000001 -0.43095399999999273
Cu -0.10084919999999897 -0.5756454499999961 -0.30475609999999875
