13

Cu 0.7590136400000063 1.0519980999999987 -2.385949150000002
Cu -0.9988732400000018 -1.5026015999999984 -1.43394945
Zr 0.5083737400000032 -2.8269005000000007 0.30255024999999947
Cu 2.1096635400000068 -0.3147011000000006 -0.9376497500000021
Cu 0.1968836400000029 -0.9522018999999986 2.385949150000002
Zr 2.553873540000005 2.407398199999996 -0.3169488499999993
Cu 2.2947635400000053 0.7650986000000017 1.6961507499999975
Zr -2.379969140000007 0.7387999999999977 -1.5684499500000015
Zr -2.553873540000005 -0.6857986999999994 1.8929509499999995
Cu -2.343370940000007 2.2982979000000014 0.7853498499999993
Cu -0.6929726400000007 2.8269005000000007 -0.6952486499999999
Zr 0.22520354000000253 2.3339003999999974 1.99185095
Cu -0.18695635999999638 0.2957991999999976 0.12085055000000011
