11

Zr -0.8383483500000004 -0.45765109999999964 -2.6301994999999962
Cu 1.9580497499999971 -1.587949799999997 -1.1513023999999987
Cu -0.02294924999999992 2.2883511 -2.2471961999999976
Zr 2.4294509499999997 0.8396510999999975 -1.9106025999999972
Zr -0.1457481499999993 -2.3849506000000034 0.8680000000000021
Cu 2.083450250000002 -0.17334939999999932 1.3420982000000024
Cu -2.4294509499999997 -0.8291492999999974 0.023403100000003008
Zr -1.7003517499999994 1.8109493999999984 -0.4836998000000037
Zr -0.7210502500000011 0.4221515999999994 2.6301994999999962
Cu 1.070850349999997 2.3849506000000034 0.41810219999999987
Cu 0.7207489499999973 0.09515189999999762 -0.3018989999999988
