15

Zr 1.4167489999999994 -2.8933598999999997 -0.7792014999999992
Cu -3.460450099999999 -0.5224796999999994 -0.6114998000000043
Cu -1.1972495000000016 -0.9131094999999996 -1.8362007000000062
Cu -0.42035190000000355 1.2033698999999998 -2.8717994999999945
Cu 1.4541482999999964 -1.1164996999999999 -2.717403399999995
Zr -2.3435507000000015 1.9289901000000014 -1.2161980000000057
Zr 1.7496498999999979 1.8914507000000014 -1.444500000000005
Cu -1.2895499000000008 -2.4628697999999996 0.4328957000000031
Cu -2.4236517000000006 1.4608599999999998 1.4256019999999978
Zr -0.6972495000000016 -0.4909597999999993 2.8717994999999945
Zr 1.9901475000000026 0.4288705000000008 2.5252952999999962
Zr -0.19394980000000217 2.8933598999999997 1.2885016999999976
Zr 1.7294473000000004 -2.6268298 2.2367973000000063
Cu 3.460450099999999 0.1688702000000002 0.22009660000000508
Zr 0.11454860000000266 -0.45644969999999985 0.14899830000000236
