14

Cu 0.3373965500000011 0.21640014999999835 -2.7044506499999983
Cu 2.3099002500000054 1.8306999500000032 -1.361452049999997
Cu 2.0226001499999953 -1.330799049999996 -1.1423511500000032
Zr -1.7126980500000073 -1.4005012499999978 -2.0290508499999973
Cu -0.22849844999999647 -2.74869915 -0.09615124999999836
Cu 2.2883014499999987 -2.3960990499999966 0.4921474499999974
Cu -1.4704036500000015 -1.3587988499999994 1.2718486500000026
Zr -2.681901950000004 0.9306983500000001 -0.14605135000000047
Cu -1.4947033500000018 0.7667007499999983 2.4846477500000006
Zr 0.07760044999999849 2.74869915 -0.9064502499999989
Cu 0.7676029500000041 2.4176979500000044 1.6406498500000026
Zr 1.1268024499999925 -0.06430054999999868 2.7044506499999983
Cu 2.681901950000004 0.25439835000000244 0.4490490499999993
Zr 0.22249804999999157 -0.15169904999999773 -0.05805004999999852
