12

Zr -2.8305988000000006 -0.4724352000000005 -0.3347510999999983
Cu 0.8822994000000044 2.2585952000000002 -0.35184860000000384
Zr -0.8671016999999956 -1.0056349000000004 -2.5402489000000017
Zr 2.3206997000000023 0.3792850999999997 -1.8226509000000064
Cu -0.984399800000002 1.5881050000000005 -1.5078545000000005
Zr -1.6130999999999993 -1.4759052000000006 2.3339499999999944
Zr 1.260500000000004 -2.2585952000000002 -0.609554199999998
Cu 1.0901013000000042 -1.8835551000000006 2.2679481999999993
Zr -1.5632991999999994 1.9856946999999998 1.207546299999997
Zr 2.8305988000000006 0.20739479999999944 1.1102485999999985
Cu 0.5113009999999996 0.6442649999999999 2.5402489000000017
Cu 0.09329800000000077 -0.08247490000000024 0.36944960000000293
