16

Cu 1.117801650000004 -2.7967987500000007 -1.767801249999998
Cu -2.4594993500000015 0.2397002499999985 -1.2576999499999957
Cu -1.3032989499999985 2.2401999499999974 -1.425199549999995
Cu -0.6066017499999958 -0.9207993500000029 -2.7131022499999986
Cu 1.3778991500000046 -0.3173981500000025 -3.0389995499999998
Cu 1.2305984500000022 2.7967987500000007 0.17949864999999932
Zr -1.9533004500000004 -2.2346000500000045 -0.986600849999995
Cu -1.055301649999997 -1.9281006500000046 1.713296849999999
Cu -2.857898749999997 -0.16360105000000402 1.0137996500000028
Cu -1.0774994499999977 0.12390124999999585 3.0389995499999998
Cu -1.1090011499999974 1.9411009499999992 1.4050998499999992
Cu 2.857898749999997 -1.1554984500000032 -1.650499349999997
Cu 1.243400550000004 -1.9804993500000023 0.4369983500000032
Cu 2.7897987499999957 -0.4019013500000028 1.2354983500000003
Zr 1.4031982500000026 1.3665999499999941 2.4769992500000058
Zr 0.16059874999999835 0.02429954999999495 -0.12100024999999448
