16

Cu -1.1112298999999997 -2.5570506500000025 -1.220398000000003
Cu -2.4049297000000003 -1.5278491499999998 2.0161018000000013
Zr 0.6177300999999993 -0.4046496500000014 -3.1216010999999995
Cu 1.0617304 -3.043050750000001 0.11719889999999822
Cu -2.0961099 -0.49524875 -2.213199600000003
Zr -2.7838297 1.055749950000001 -0.39199830000000446
Cu -0.9146900000000002 1.8096485500000004 -1.612999000000002
Zr 1.76093 1.9565487499999978 -1.718799600000004
Cu -0.05879020000000068 -2.361249850000002 2.0452002999999976
Zr -0.8833800000000007 3.043050750000001 0.6930008000000001
Zr -2.219729900000001 1.0447483500000008 2.651599900000001
Cu 2.7648306 1.0907497500000023 0.518199899999999
Zr 2.7838297 -1.424550850000001 1.8696021999999957
Cu 2.762630399999999 -0.7225513500000016 -1.250099200000001
Zr 1.0615300999999988 1.191751550000001 3.1216010999999995
Zr -0.005470300000000705 -0.2155513500000037 0.4188994999999949
