14

Cu -1.2660399 -0.5755997500000021 -2.038129849999999
Zr -2.77142 -0.3750992499999981 0.44404985000000075
Cu 0.9315000000000007 -2.294399249999998 -2.48219965
Zr 1.7320199 0.27779764999999657 -2.49394985
Cu 1.9382203999999996 1.3211974499999997 0.13405035000000076
Zr 2.77142 -1.5289001499999983 -0.35184954999999896
Cu -2.0949697999999994 1.4011001499999978 -1.3930501499999988
Zr 0.2053704000000005 2.8703994500000007 -1.5104598500000002
Zr -0.7175497999999996 -2.8703994500000007 0.03235055000000031
Cu -1.1616501999999995 -1.1439018499999989 2.341750150000001
Zr 0.8756203999999999 0.6210975500000018 2.49394985
Cu 1.5762200000000002 -2.631702449999999 1.5753498500000003
Cu -0.4837499000000003 2.4650001500000016 1.0478505499999997
Cu 0.0011801000000000172 -0.023899049999997146 -0.014249849999998787
