11

Cu -0.45885075000000164 1.21604915 -2.633346599999996
Cu -1.4567507499999994 -2.5666503499999997 -0.29125209999999413
Zr -2.734149950000001 -0.20235055000000202 -0.25734710000000405
Zr 0.33804894999999924 -1.5000495500000035 -2.080551100000008
Cu 2.1502494499999987 -1.4266471500000044 -0.5559463999999963
Zr 2.734149950000001 1.0050506499999976 -1.7967529999999954
Zr 1.920949949999999 1.6181526499999954 1.363349900000003
Zr -0.6952514500000024 2.5666503499999997 -0.3667525999999981
Zr 0.02495004999999928 -1.892547650000001 1.8916473000000025
Zr -0.6338500500000013 1.191150749999995 2.633346599999996
Cu -0.08015065000000199 -0.06874845000000462 -0.12355039999999917
