12

Zr -1.5103006000000008 -2.3652496500000026 -1.9846496500000015
Cu -2.4219998999999994 0.4123497499999971 -0.5908508500000025
Cu 1.0015000999999977 -1.8098487500000005 -1.8829498499999957
Zr 2.4219998999999994 -1.1831512500000017 0.015449550000006695
Zr -0.8158999000000016 -2.5264511499999998 1.2532501500000066
Cu 1.5889005999999988 1.3559494499999971 -1.5079498499999957
Zr -1.0381993999999999 0.8793487499999983 -2.4528503499999985
Cu -0.5848989000000024 2.5264511499999998 -0.03034974999999207
Cu -1.2473001000000004 0.44174954999999727 1.4449539500000057
Zr 2.092699999999997 1.075748449999999 1.549453750000005
Cu 0.4686994999999996 -0.6230506500000033 2.4528503499999985
Cu 0.3102999000000004 -0.2287520500000042 -0.3903503499999985
