14

Cu -0.09769825000000054 -1.594797149999998 -2.1834898
Cu -0.9287986499999974 0.5032024500000034 -2.2933102
Zr -2.0744972500000003 -2.437700249999999 -0.044400200000000556
Zr -1.7222023499999963 1.6316013499999968 2.2725096000000007
Cu 1.858097050000005 -1.156000050000003 -1.3726201000000002
Cu 0.5329017500000006 -0.021398550000000682 2.2933102
Cu -0.5348014499999962 -1.8116969499999982 1.98211
Cu 2.5929985499999972 0.9559002499999991 0.450839999999999
Zr -2.5929985499999972 0.10810285000000164 0.036259600000000614
Cu 1.1020011499999995 -2.0338000499999964 0.4992704999999993
Cu 0.9219016500000023 2.3537006500000004 1.4069300000000005
Cu -0.6077003499999947 2.437700249999999 -0.47127010000000036
Cu 1.2037009500000053 1.5392017500000037 -2.19274
Cu 0.16219704999999607 0.026899450000001934 0.020399999999999974
