15

Zr 2.4159498499999996 -2.0846996000000004 -0.21174809999999766
Cu -0.01504994999999898 -0.4785022999999953 -2.6830502000000003
Cu 0.37594884999999945 1.7709979999999987 -2.232950200000001
Cu -0.09805014999999973 -2.6835994999999997 -1.0425511000000007
Zr -2.410250649999999 -1.6273021999999955 -2.1075496999999963
Cu -1.5738506499999998 -1.9962024000000014 0.9933490999999997
Cu -2.4159498499999996 0.220998900000005 0.9134502000000033
Cu 0.5777502500000002 -2.5995998 2.320451700000003
Cu -0.024650549999999605 1.1732999000000035 2.6830502000000003
Cu 2.150149350000002 0.1492977000000053 -1.9089489000000022
Cu 1.9576501500000019 -0.33730119999999886 2.2054500000000026
Cu -2.208450349999999 1.3229009000000005 -1.2295513000000007
Cu -1.066050549999999 2.6835994999999997 0.7258511000000034
Zr 1.8485498500000004 2.3663998000000035 -0.07715030000000311
Zr -0.15255064999999934 -0.20990179999999725 0.1657504999999979
