15

Zr -0.08890054999999819 -2.8913002 -1.6660499500000006
Cu -2.2615995499999997 -1.2052002000000002 -1.780249650000001
Zr 1.8629999500000025 -0.5025995999999999 -1.7841501500000012
Cu -0.624699549999999 0.08909989999999723 -2.6252498500000003
Cu -2.60039995 1.771799099999999 -0.7393493500000003
Zr 0.6187010500000021 2.6455993999999983 -1.29255005
Cu -0.9802999499999991 -2.8535995000000014 0.8185500499999998
Cu 1.8466997500000026 -2.2928008999999996 0.08855054999999812
Cu 2.6426992499999997 1.0802002000000002 0.3595504500000013
Cu -0.9511003499999973 -1.459301 2.6252498500000003
Cu -2.6426992499999997 0.3096999999999994 2.242250450000001
Cu 1.6815996500000026 -0.5031011999999997 2.168550449999999
Cu 0.15549945000000065 1.772298799999998 2.4348506499999987
Cu -1.3102006499999987 2.8913002 0.9223500499999995
Zr -0.3893003499999992 -0.28470040000000196 0.4393501500000001
