12

Zr 1.724102000000002 -2.2768001500000006 -1.64505005
Zr 0.04570390000000657 2.3823003500000004 -0.8654498499999992
Cu 0.7022972000000038 -0.03279974999999968 -2.46775055
Cu -0.4660987999999975 -2.3823003500000004 1.2844505500000007
Cu 0.06380079999999566 -0.0714006499999984 2.2897491500000005
Zr -1.716701399999991 -0.3487005500000011 -1.2738494499999984
Cu -2.4156990000000036 -1.1840009499999988 2.303550750000001
Zr 2.4156990000000036 -1.6045999500000017 1.592849750000001
Cu -1.8409003999999953 1.6632986500000007 0.7413501500000006
Zr 2.4121971 1.2288999500000015 0.6977500500000016
Cu 0.3477974000000046 2.377900150000001 2.46775055
Cu 0.18739700000000425 -0.31550115000000023 0.06405065000000043
