13

Cu 0.32964890000000224 -2.4543991000000034 -1.7946491999999985
Cu 1.5516490999999988 0.6092986999999965 -2.339151400000002
Zr -2.0847491999999974 -0.2867012000000031 -1.9302501999999997
Cu 2.3021526000000065 -0.8400992999999985 -0.4516505999999971
Zr -0.3448504999999997 2.1327019000000007 -2.5504513000000024
Zr -2.6896496000000027 -1.7401009000000016 0.7637500999999993
Zr 0.21475039999999268 -2.8224982999999995 0.8517514000000013
Cu 0.7598553000000052 -0.2531012999999973 2.5504513000000024
Zr -2.6094494000000026 1.9939003 -0.21994979999999842
Cu 2.6896496000000027 1.268600499999998 1.0735491999999986
Cu -1.8290500000000023 0.45489880000000227 2.191549300000002
Cu 0.32715409999999423 2.8224982999999995 0.06535140000000084
Zr 0.0698527999999996 0.07789989999999847 0.003351200000000887
