14

Cu 0.0013504000000068572 0.9388990499999963 2.5835654150000025
Cu 1.0776520000000005 -1.828700050000002 -2.286865915
Cu -1.5320511000000039 -2.352499950000002 -1.3018653149999935
Cu -1.2294464000000005 -1.1352013500000027 1.7321312850000012
Zr -3.173850999999999 -0.7750005500000015 -0.9128653149999977
Cu 0.06894690000000026 -2.8149004499999997 0.16753318500000347
Cu -2.3075484000000017 0.976901049999995 1.0137322849999961
Cu 1.1322478999999959 -1.7356004499999997 1.6499321850000044
Zr 3.173850999999999 0.8824988499999975 -0.5570685150000045
Zr 2.7597504000000015 -2.85340025 -0.8717657150000022
Cu 1.125549300000003 0.8024988499999992 -2.5835654150000025
Cu -1.167548999999994 1.4630994500000014 -1.797570014999998
Zr 0.5036469000000068 2.85340025 0.8190300850000014
Zr 0.3226470999999975 -0.15410135000000125 -0.36866831500000075
