13

Cu -0.575048449999997 -0.9194507499999993 -2.643600499999998
Zr 2.70685005 -1.3382511500000014 -2.579902699999998
Zr -1.3749485499999992 2.072648949999998 -2.494598399999994
Zr -2.70685005 -1.6862507500000028 -0.6288986000000065
Cu -0.4624462499999993 -2.103048250000004 1.6774978999999988
Zr 0.6106510500000013 -2.5566501499999994 -0.9966048000000072
Zr 1.9450473499999958 -0.5266514499999992 1.7388991999999988
Cu -1.9237499500000013 0.5860500500000008 0.10879510000000181
Cu 1.0773486500000047 0.9472522499999947 -2.5461043999999973
Zr -0.47035024999999564 0.5758495499999974 2.643600499999998
Cu -0.5317516500000039 2.5566501499999994 -0.08570100000000735
Cu 2.361947950000001 0.9665507499999997 -0.4350051999999991
Cu 0.13935275000000047 -0.09594925000000032 -0.4854050000000072
