15

Cu -1.4781036000000043 1.0723996499999995 -2.7470998500000015
Zr -1.255500700000006 -1.495600249999999 -2.031701049999999
Cu 1.2024994000000007 -0.6144995499999997 -1.1111001499999986
Cu -0.7772979000000007 -2.4747996499999996 0.9170999500000008
Cu 1.650398299999999 -1.7160000499999999 1.0188989500000005
Cu -3.072601299999995 -2.0618995499999997 -0.17560105000000092
Zr -2.6144027000000065 -1.3440995499999993 2.7470998500000015
Cu -2.8396988000000007 0.012600450000000762 -0.044301050000001396
Zr -1.5471038000000092 2.28830005 -0.21760085000000018
Cu -1.5645979999999966 0.8709998500000005 2.140000350000001
Cu 0.1163024999999962 -1.280399749999999 2.6666002499999983
Zr 3.072601299999995 0.5400996500000002 0.29759884999999997
Zr 1.5311965999999941 2.4747996499999996 -0.8182993500000002
Cu 1.2982026000000033 0.8223004500000002 2.18830015
Cu -0.3615035999999989 -0.2667994500000006 0.4343995499999984
