14

Zr -2.6668997 -1.3462982000000032 -0.46262883499999674
Zr -0.016999199999998993 -2.4810982000000017 -1.7687940650000087
Cu -1.0983991 -2.6683997999999995 0.8743910649999975
Cu 1.526200300000001 -2.433799799999999 0.38313126500000294
Cu -2.4033993999999996 0.38609689999999475 1.4933609650000008
Zr -2.6118001999999994 1.7330970999999913 -0.8770388350000005
Cu -0.21829889999999885 2.6683997999999995 -1.809226834999997
Zr -0.583199500000001 2.341197899999994 1.4825610649999987
Cu 1.6765013 1.6004982000000005 0.6206910650000026
Cu 2.6668997 -0.5874977000000037 1.1052313650000016
Zr 0.1295996000000006 -1.0433997999999995 2.580691365
Cu -0.6492984999999987 0.0923041999999974 -2.580691365000007
Zr 1.5327006 0.09869760000000483 -1.7415888350000017
Cu -0.5544996000000015 -0.11220159999999524 0.10514116499999915
