12

Zr 0.3368988499999972 -2.83290005 0.039302800000001525
Cu -1.811500549999998 -1.719300249999999 0.9253044000000017
Cu -1.5661011500000015 1.8390999500000005 -1.295696300000003
Zr -2.1979027499999972 -1.7034005499999987 -1.7635001999999957
Zr 0.6404990500000025 2.83290005 -1.236400599999996
Cu 0.7989997500000001 -0.6177005499999995 -2.343601199999995
Zr 2.323799049999998 1.0901995500000004 0.5175056000000069
Zr -2.944599150000002 0.76840025 0.6088981999999987
Cu 2.944599150000002 -1.35099985 0.04980079999999987
Zr 0.24069974999999744 -0.1732997499999991 2.1758995
Cu -1.5343017499999974 2.0122995500000007 2.343601199999995
Cu -0.013202649999996652 0.07319935000000033 -0.22880170000000533
