13

Cu -2.2660993499999993 -1.3208522500000015 -1.2126493999999983
Zr 0.31269975000000017 -2.5659503500000014 -1.000849699999998
Zr 2.5542998499999996 -0.2447490500000029 -0.6388501999999985
Zr -2.5542998499999996 2.0701503499999987 -0.5643492000000006
Zr 0.7648998500000026 -0.05645185000000197 -2.9760504
Cu -1.8064007499999981 0.7646503499999966 -2.8242502
Cu -0.11559914999999776 2.5050487500000003 1.6224509000000022
Cu 0.9616999499999999 2.5659503500000014 -0.8037499999999991
Zr -1.9489999499999975 -1.4891490500000018 1.5351496000000022
Zr 1.4092993500000013 -1.3929500500000032 2.1597509000000006
Cu -0.5345005500000006 0.749948449999998 2.9760504
Cu 1.8080992500000015 1.513547949999996 1.5811511000000014
Zr -0.28030054999999976 0.09694865000000163 -0.25604919999999787
