13

Cu -1.7583484499999997 -2.5000991999999975 -0.4092006500000025
Cu -2.4612484499999994 -0.21480180000000004 -0.9913996500000053
Cu -2.249448749999999 1.5817986000000026 -2.3672008500000032
Cu 0.2236499500000022 0.6619988000000028 -2.4149989500000046
Zr -0.4228496500000034 -1.8920021000000027 -2.776300450000001
Cu 2.531251949999998 -0.9057998000000005 -1.8588008500000015
Cu 1.2827511500000028 -2.1208992 0.6886997499999978
Zr 2.686250649999998 0.39479840000000266 0.3570995499999938
Zr -2.686250649999998 2.5000991999999975 0.1916980499999994
Cu -1.7571506499999998 -0.3703995000000013 2.0107975499999995
Zr 0.18414874999999853 1.4370003999999987 1.7774982500000007
Cu 0.5278491500000015 -0.834098799999996 2.776300450000001
Cu -0.41995045000000175 -0.30580139999999645 -0.10780145000000374
