16

Cu -1.5509013500000037 -0.4040748999999999 -2.844800900000001
Zr 1.1653003499999954 -0.7009851999999994 -3.0606995
Cu -2.2884997499999997 0.684695 -0.7269002000000011
Cu -0.03719905000000523 1.6958549 -1.9976006000000002
Cu 0.051298149999993825 -1.7676250999999996 1.4043997999999984
Zr -2.1847018500000033 -1.9972850999999996 -0.7716007999999999
Zr 0.6439991499999991 -3.1618649999999997 -1.0296002000000026
Cu 2.6839008500000006 0.8303449999999999 -1.5641003000000016
Cu -2.17450135 -0.8071749000000001 1.7742996000000009
Zr 0.20340154999999527 0.7631948000000004 3.0606995
Cu 2.5902996499999986 -1.6894151999999996 -1.1811009000000023
Cu -1.593599250000004 3.161865 -0.5134011000000012
Cu 0.9600011499999965 1.735935 0.3939989999999991
Zr -2.6839008500000006 1.9450452000000005 2.0909995000000006
Zr 2.6601009500000004 -0.5144651000000002 1.4789999999999974
Cu -0.393999050000005 -0.06973479999999954 9.909999999813124e-05
