12

Zr -2.7245007 0.6682987000000011 -1.4274501999999991
Zr 1.481000899999998 -2.4959009999999964 0.2908496000000049
Cu -0.7220019999999963 -0.9660014999999973 -1.778051399999999
Cu -0.8976001999999994 2.650098800000002 -1.8806514999999955
Zr 2.082098000000002 -0.6099985999999973 -2.3883495000000003
Zr 2.1422977000000003 2.4484005999999994 -1.496252099999996
Zr 0.3446978999999999 2.4852010000000035 0.672849700000004
Zr -1.2217997999999994 -2.650098800000002 1.5169506000000048
Cu -0.0004023999999986927 -0.4089985000000027 2.3883495000000003
Cu -1.9806004000000001 0.8411006999999984 1.259748400000003
Zr 2.7245007 0.625799200000003 1.5934504999999994
Cu -0.05090140000000076 0.015897700000003567 -0.13735019999999665
