15

Cu 0.8908505000000009 -2.348354299999997 0.8018493000000007
Cu -1.6310497000000002 -2.2544517999999982 0.4704474999999988
Cu -2.5256495999999995 -1.1248511999999948 -1.2668494999999993
Cu -2.724449699999999 0.9113502999999952 0.10445020000000227
Cu -1.6583495 0.9934501999999981 -2.400249500000001
Zr -0.06394920000000148 -3.1977500999999933 -1.4447517999999988
Cu 2.3991494000000007 -1.530452699999998 -1.1026497000000006
Cu 0.8696503000000018 -0.48755269999999484 -2.3801498999999993
Cu 0.3338494000000001 3.1977500999999933 -1.6780509999999964
Cu 2.724449699999999 -0.39924990000000093 0.9853476999999984
Cu -1.8526492999999995 2.999149299999999 -0.3589515999999975
Zr -1.7722496999999997 2.0296517000000023 2.193248700000005
Cu 0.4488511000000006 0.06715010000000632 2.400249500000001
Zr 1.4720502 2.513347699999997 0.4141502000000017
Zr -0.5451493999999997 0.04254530000000045 -0.29005049999999954
