13

Zr -0.31515124999999955 -2.917652100000005 -0.21444990000000175
Zr -2.632949850000003 -0.17865370000000524 -1.3116503000000002
Zr -0.9230499499999993 2.4917488000000034 -2.457150500000001
Zr -1.9606513500000062 -0.668949099999999 1.5040504000000006
Cu 0.5846519499999943 0.3527489000000017 -2.606949799999999
Cu 0.3001518499999989 -1.166950100000001 2.606949799999999
Zr 2.632949850000003 1.612850200000004 -0.6128491999999994
Cu 0.7548484499999972 0.7643471000000019 2.191250799999999
Cu 1.7782516500000014 -1.5178490000000053 -1.1282491000000014
Cu 0.46575174999999547 2.917652100000005 0.10785010000000028
Cu 2.341552749999991 -0.7590523000000005 1.1769494999999992
Cu -1.856349950000002 2.7660485000000037 1.3740512000000003
Cu -0.12044905000000483 0.3387489000000059 -0.16574950000000044
