17

Cu 2.9925499 -1.5923005000000003 -0.8705482
Cu 1.135951899999995 -1.6387025000000008 -2.9945487999999987
Cu 0.30035010000000284 -3.0764007000000007 -1.0533484999999967
Cu -1.354953800000004 -1.9685059000000038 -2.1260489999999965
Zr -2.9925499 0.5618971999999971 -1.5843505999999987
Zr -0.382549300000008 1.1358947000000015 -2.8324488999999975
Cu 2.1783484999999985 0.5257949000000011 -1.8499488999999993
Zr -1.3895531000000005 2.8395003000000045 -0.2497481999999973
Cu 1.330249699999996 3.0764007000000007 -0.8746489999999962
Zr -1.4552498000000043 -2.591705400000002 0.8414498000000012
Cu -2.3677483000000024 0.42029570000000405 1.4845504999999992
Zr 2.2662466999999964 0.21170040000000512 2.047649399999999
Cu 1.1375464999999991 2.4964979999999954 1.0456505000000025
Cu 1.6379508999999928 -2.2397003999999967 1.5391503000000046
Cu -0.312549599999997 -1.3472061999999951 2.9062500000000018
Zr -0.6313515000000081 1.6036987000000025 2.9945487999999987
Zr 0.24564750000000402 -0.16790010000000422 -0.11754979999999726
