16

Cu 1.918562890000004 -0.24579910000000105 -2.1258497
Cu 1.9844928900000056 -2.4114006999999997 -1.0695505000000018
Cu -2.046189290000001 0.28220080000000003 -2.419049300000001
Cu 0.20597309000000052 -1.5649995999999984 -2.649149900000001
Zr -2.7910928900000016 -1.959199 -1.4400492000000007
Cu -0.5436868900000036 -3.1253003999999986 -0.9054499000000007
Zr 0.14674279000000467 2.0059004 -2.2569494
Zr 2.7910928900000016 1.5836001 -0.7245492999999996
Cu -2.594193490000009 0.2715006000000013 -0.3472490000000015
Cu 0.31471299000000386 3.1253003999999986 0.550448399999997
Cu 0.9465626900000075 -1.5693998000000011 2.649149900000001
Cu 2.7754630900000024 -0.9205999000000009 0.9111508999999991
Zr 1.5947627900000043 1.3391007999999989 2.5724515999999973
Zr -1.6802910899999972 -1.3012990999999996 1.999949499999996
Zr -1.7510918899999979 1.6173011000000006 1.969050499999998
Zr 0.079062890000003 -0.2958002000000004 -0.16125010000000017
