16

Cu -1.927200349999998 1.6014479999999978 -1.8557997000000004
Cu -1.6619015499999978 -1.094150599999999 -1.8372001000000004
Zr 0.5303000500000028 0.464046500000002 -2.881199800000001
Cu -0.6724014499999971 -2.9827538000000047 -0.5142002000000012
Zr 1.9631996500000017 -3.03125 -0.1875
Zr -2.0677013499999983 -1.0510520999999997 2.0644998999999995
Cu 2.0436000500000038 1.6802482000000012 1.2281999999999993
Zr -3.1923007499999994 0.4000472999999971 -0.1456002999999999
Cu 0.48159975000000266 -1.950252599999999 2.6014003999999993
Zr -0.09749994999999778 1.1330489999999998 2.881199800000001
Cu -1.5405998499999978 2.2100486000000004 1.0801000999999992
Cu 2.639499650000003 -0.45635219999999777 -0.8815001999999996
Cu 2.592699050000002 1.7041472999999954 -1.3395995999999997
Zr 3.1923007499999994 -1.0719528999999994 1.8870000999999998
Cu 0.392000150000003 3.03125 -0.27669999999999995
Zr 0.3127002500000007 -0.049652100000002974 0.06429960000000001
