16

Zr -0.10194964999999812 -2.5962504499999994 -1.7678488499999965
Cu -0.6564501500000013 0.3741473500000012 -2.747051250000002
Zr 1.8671512500000027 2.7389507500000008 -0.5105514499999977
Cu 1.6439495499999985 -0.34415245000000283 -1.1771507499999991
Cu -0.7801494499999997 -2.7389507500000008 0.6396484499999993
Zr 2.1380482500000006 -2.4547520500000033 0.5824508499999972
Cu 0.1875477500000038 -1.6506518500000027 2.747051250000002
Cu -2.015550549999997 -0.406850850000005 -0.9753494499999995
Cu -1.2183513500000025 2.3180485500000003 -0.9839515499999969
Cu -1.4751491499999965 -0.7618503500000031 1.7365493500000007
Zr -2.7115497499999996 1.5272502500000016 1.0370483500000027
Cu -0.1285495499999989 2.6410503500000004 1.26065075
Cu 0.3748494500000028 0.8218478499999975 2.564449249999999
Cu 2.7115497499999996 0.7051486499999982 0.7682495500000037
Cu 2.391649250000004 -0.5401516499999985 2.7016487500000004
Cu 0.09855084999999875 -0.3474521500000023 0.3859519500000026
