11

Zr -2.349899300000004 0.3536987499999995 0.9591016150000087
Cu -0.9868010999999939 -1.9854011499999977 1.7058916150000059
Zr -0.3569030999999967 2.88940045 0.5675063850000015
Cu 0.5979004000000003 0.8048000500000008 2.261091615000005
Cu 1.5056000000000012 -1.4582004499999996 1.845221615000007
Zr 0.13579559999999447 -2.88940045 -0.399488814999998
Cu 2.349899300000004 1.1026992500000006 0.1947112849999968
Cu -1.8343047999999982 -0.47830004999999787 -1.4483932149999958
Zr 0.2922973999999954 1.1326999499999992 -2.261091614999998
Cu 1.695198099999999 -0.8803005499999976 -1.5578903149999945
Cu 0.0878983000000062 -0.006401050000000907 0.15780798500000515
