15

Cu -2.5200500499999983 -0.6898993999999945 0.7956871650000039
Cu -1.2238502500000017 -2.479900299999997 -0.4151230349999935
Cu -0.9127502499999984 -2.043296799999993 2.025377265000003
Zr 2.317449549999999 -2.036399799999998 2.1949872650000017
Cu 2.560649850000001 0.26600270000000137 0.5829369650000018
Cu -1.5009498500000014 1.4169998000000064 1.5639772650000054
Zr -1.3997497500000016 1.5993004000000042 -1.636832934999994
Zr 1.3929500499999996 2.480701500000002 2.182507065000003
Cu 0.88364975 2.5564003 -0.8343129349999998
Cu 0.6843490500000016 0.044101700000005906 2.847717265
Cu 1.3023490500000001 -2.5564003 -0.30559293499999285
Cu -2.560649850000001 -0.9964980999999966 -1.8608129349999984
Cu -0.2962513499999986 -0.362197799999997 -2.847717265
Cu 2.0730495500000004 -0.03459929999999645 -1.8196028349999978
Zr 0.08584975000000128 -0.24959939999999392 0.22893716500000494
