12

Zr -2.868198399999997 -0.2895488999999998 -0.5544529500000017
Cu -1.1202011000000027 -2.555551600000001 0.2645473499999973
Zr 2.868198399999997 -0.12655069999999569 -1.7406520499999978
Cu -0.4922980999999993 -1.5204486999999958 -1.9986515500000017
Cu -1.4221001000000015 2.1840496000000016 -1.346651050000002
Zr 0.5816001999999969 2.555551600000001 0.329347649999999
Cu 1.0326996000000008 1.5130520000000018 -2.122049350000001
Zr 1.7635002000000028 -2.314249099999998 0.5693492499999984
Cu -1.9773978999999997 2.1597499000000013 1.4801502499999977
Cu -0.4302977999999982 -0.4419497999999962 2.122049350000001
Zr 1.8642997999999977 0.6073512000000036 1.6168498499999977
Cu -0.014099100000002807 0.055349300000003154 -0.10855294999999998
