12

Zr 1.3326987999999993 -2.4173011500000037 -0.2105503000000013
Zr -2.2322998 -0.6945991499999984 -1.2236499999999992
Zr -1.2933006999999996 -2.6268005500000022 1.2276497000000006
Cu 0.5643004999999981 -1.8572005499999982 -2.554149599999999
Cu 0.794198999999999 0.5858002500000019 -2.1001510000000003
Zr 1.776800099999999 2.6268005500000022 0.08434869999999961
Cu 2.2322998 0.08229834999999852 1.041050000000002
Cu -0.7037011 2.3085976499999994 -0.624050099999998
Cu -2.1599007000000015 0.9073982499999964 1.0064488000000011
Zr 0.021098999999999535 -0.8642005500000032 2.554149599999999
Cu 0.13399880000000053 2.0573006499999984 2.0419503
Cu 0.08460039999999935 0.26950084999999646 0.28324890000000025
