15

Cu -1.9449003999999999 1.692000400000003 -1.1363486999999992
Zr -1.1583003999999981 -0.10760019999999848 -2.8484497000000033
Cu -0.18950080000000114 -2.4274014999999967 -1.7003516999999988
Cu 0.9349995 -2.4998006999999998 0.6546517000000023
Zr -2.5089007 -1.775801699999997 -0.12594980000000078
Cu 2.0855999999999995 -0.5833005999999994 -2.1835518000000036
Cu -2.6487999 0.42649940000000264 1.0512505000000019
Cu 2.6487999 -0.6698007999999991 0.2378501999999969
Zr 1.0391006000000012 1.6314992999999998 -1.4340515000000025
Cu -1.2301998000000012 2.4998006999999998 1.0003509000000008
Cu -1.1646995999999987 -1.8076009999999965 2.3661498999999964
Zr -0.8744009999999989 0.9141990000000018 2.8484497000000033
Cu 2.066799200000002 -1.2400006999999977 2.4574508999999978
Zr 2.083900400000001 1.7037993000000053 1.5232505999999972
Cu -0.29879949999999766 -0.08920179999999966 -0.06895060000000086
