13

Zr 0.7100010499999989 -2.279300750000001 0.516853299999994
Cu -1.5495013499999963 -0.4971009500000001 -1.7423477000000105
Cu -2.515600150000001 -1.2528000500000012 0.7305525999999958
Cu -0.10479924999999568 2.07080075 -1.9104462000000098
Zr 1.3331013500000033 -0.8764000500000044 -2.911651599999999
Cu 2.6322002500000004 0.4212988499999959 0.5881499999999988
Zr 2.3742008499999976 2.277801549999996 -1.1975479000000036
Cu -1.8115977500000007 0.9158019499999988 2.1770476999999886
Cu -0.32489964999999543 -1.2520981500000055 2.6405486999999965
Zr 1.2421016499999986 0.9189986499999954 2.911651599999999
Zr -2.6322002500000004 1.5185011499999952 -0.2944489000000061
Cu 0.17799954999999912 2.279300750000001 0.7454528999999894
Cu 0.11929904999999863 0.37760154999999784 -0.012252799999998842
