13

Cu -2.5681996499999995 -0.6167487500000028 -0.8581982000000004
Cu -0.2936997500000009 -1.5054511500000025 -2.1434993999999996
Cu 2.1318993500000003 -0.7589492500000041 -1.5002002999999995
Zr 0.9044003499999986 -2.7510490500000024 -0.1103000999999999
Cu -1.7308993500000005 -1.4422492499999997 1.284700400000002
Cu 0.9711003499999995 1.9615516500000005 -0.9839992999999971
Cu 2.5681996499999995 -0.14545054999999607 1.1163044000000006
Zr 0.23379944999999847 0.8089485499999931 -2.9694996000000025
Cu -1.4323992500000005 2.7510490500000024 -1.9608973999999968
Zr -0.058999550000000234 1.7336463499999972 2.0143986000000034
Zr 0.273800350000001 -1.9339485500000002 2.9694996000000025
Cu -2.20089955 1.747646349999993 0.18670080000000056
Cu -0.3804001500000007 -0.028453850000008885 -0.06059839999999994
