14

Cu 1.03979965 -2.6091599499999996 0.9605493499999991
Zr -2.75570015 -0.45008994999999974 -1.4329499499999994
Zr 0.2148999500000004 2.6091599499999996 -1.4664506500000005
Cu 0.3015994500000003 -1.76848985 -1.3983506499999994
Cu -0.3235998499999999 0.57250025 -2.745249750000001
Cu -1.6742000500000005 1.1321701499999994 0.2961492500000009
Cu 2.520899749999999 1.3926997499999993 0.6812506500000008
Zr 2.75570015 0.07806015000000066 -1.7248506499999987
Cu 2.6279001499999994 -1.26983975 0.7137499499999986
Cu 0.036999649999999384 -0.7166700499999994 2.717650449999999
Zr -1.6618004500000003 -1.96178965 0.8747493500000001
Zr -2.316300449999999 0.48664995000000033 2.745249750000001
Zr 0.7306003500000005 2.2726197499999996 2.03275015
Cu 0.10309974999999927 0.08867024999999984 0.024048850000001565
