14

Zr 0.24679940000000045 1.0191900999999999 -2.8158989000000005
Zr -2.845798500000001 0.5612099000000002 -1.3415031000000042
Zr -2.2785987999999975 -2.6159901000000003 -0.08469769999999954
Cu -2.282798799999995 -0.3593199 1.741603899999994
Cu -1.7154006999999964 -1.3397999 -2.5491981000000052
Zr 0.5210991000000007 -2.5612700000000004 -1.531497899999998
Cu 1.2794990000000013 2.5379798 1.0353966000000057
Zr 2.845798500000001 0.07615999999999978 -1.337497699999993
Zr -1.2980003999999994 2.6265899999999998 0.370296500000002
Cu 1.8877984000000012 -2.62659 1.5985985000000014
Cu -0.5662994999999995 -2.31391 2.1662025999999983
Cu 0.576198600000005 0.6601297999999995 2.8158989000000005
Cu 2.625400500000005 -0.4408801000000002 1.3157006000000067
Zr -0.08639900000000011 -0.5867200000000001 0.3494987999999992
