16

Cu -1.3315449000000004 2.5062494000000015 -2.2144984999999977
Cu 1.1316357 2.8075495000000004 -1.1219005000000024
Cu 0.8385153999999999 1.4800500999999997 -2.6704998000000018
Zr -0.001894999999999758 -2.8075495000000004 -0.4262980999999968
Zr -2.0100846000000003 -0.3831491999999983 -2.2777004000000005
Cu -1.4866648000000002 -1.1784506000000015 1.3610019999999992
Cu 0.6334452999999995 -0.9598493999999995 -2.267000099999997
Zr -3.3227348 1.0573510999999982 0.18010149999999925
Cu -0.8806047000000006 2.803151100000001 0.2335987000000017
Cu -1.1895646000000002 1.8388509999999982 2.6704998000000018
Cu 1.0878849000000002 0.1992502000000016 2.544099899999999
Zr 3.3227348000000005 1.1710500999999987 -2.0277995000000004
Cu 2.8317852 -1.1764498000000003 0.010099500000002593
Cu 2.8052950000000005 1.0097494000000005 1.0995999000000012
Cu 1.7778854000000002 2.801249500000001 1.7950992999999968
Zr 0.29871509999999946 0.5023507999999985 -0.09710119999999733
