14

Cu -2.547399549999998 -1.015151999999997 -1.0674348
Zr 0.897798550000001 -2.8042488 -1.1771350000000007
Cu -0.6644992500000022 -0.9425506000000006 -2.7933650000000005
Cu -1.615201950000003 1.3326493000000035 -1.7183345999999995
Zr 0.04199794999999895 2.8042488 -0.39473490000000044
Cu 1.8610973499999979 0.5175514999999997 -1.3958345000000003
Zr -2.422300350000004 -1.6869507000000006 1.482465200000001
Cu 0.2070980500000026 -1.845550499999998 1.9998650000000007
Cu -1.8449001499999973 1.4702492000000014 1.0159650000000005
Cu 2.339799850000002 -0.4948500999999972 2.5303654
Zr 0.022100449999999938 1.8146516000000013 2.7933650000000005
Cu 2.547399549999998 1.7176513999999976 0.8286652000000005
Cu 2.5204982499999993 -0.8124503999999995 0.40206480000000067
Zr -0.051702549999998126 -0.31365200000000115 -0.13193469999999952
