14

Cu 0.7008495500000009 -1.3956356000000003 -1.6560001
Cu 1.1652508499999996 0.578125 -2.801000600000002
Zr 2.954851150000003 -0.20627499999999976 -0.36350060000000184
Zr -1.8786487500000035 0.22732449999999993 -3.0249004
Zr -2.6342487499999976 2.1667251000000007 -0.8094996999999964
Cu 0.42175104999999746 2.9567251 -1.1507014999999967
Cu -1.8843517500000004 -1.8871450999999997 -1.007799200000001
Cu 0.0932483500000032 -3.0045252 0.6778011999999976
Cu 0.7034511499999994 -1.1090153999999988 2.294500400000004
Cu -2.954851150000003 -0.2839755999999998 0.28610040000000225
Zr -0.5426502500000012 3.0045252 1.370298400000003
Zr -1.4111499500000022 0.7734252000000001 3.0249004
Cu 1.442750949999997 1.3415251000000001 1.6263982000000041
Zr -0.4080486499999978 0.4245253000000009 -0.46819879999999614
