16

Zr -2.495299300000001 -1.5374001999999987 -0.46465299999999843
Cu 1.0190993000000024 -0.6733007000000004 -1.936950699999997
Cu -1.3103989999999985 2.6407995999999994 -0.17445379999999489
Cu -3.3466997000000003 0.8849001000000012 0.14714809999999545
Cu 1.2645005999999999 1.4819002000000001 -2.331352300000006
Zr -1.1382989999999982 0.021698999999999913 -2.7335510000000056
Cu -2.7850008000000006 -0.5516003999999999 1.8784485000000046
Cu -0.6908006999999987 -0.035300200000000004 2.4529495000000026
Zr -0.9297990999999985 -2.9450997999999995 1.6318511999999998
Zr 2.269999499999999 -1.9093999999999998 0.10855100000000562
Cu 0.11180019999999935 -2.7228002 -1.1542510999999962
Cu 1.8715010000000003 -0.5026005999999992 2.7335510000000056
Zr -1.5987004999999979 2.2597989999999992 2.1544494999999984
Cu 1.0441009000000019 2.9450997999999995 -0.15325169999999844
Zr 3.3466997000000003 0.9625006000000003 0.7172470000000004
Zr -0.12869929999999918 0.29399969999999875 0.12334439999999347
