15

Zr -1.7353973499999995 0.9334005999999997 -2.945648200000001
Cu 3.0663985500000024 1.1135001000000004 -1.093749999999993
Zr 1.7667007499999983 -1.2312997999999995 -1.6942519999999988
Cu -0.0745009500000009 -2.8996997 -0.008354200000006529
Zr -3.0663985500000024 1.2124992000000008 0.013244600000000162
Cu 0.9575042499999995 1.8628001999999997 -2.033355699999994
Cu -0.3837967500000019 -2.1977 -2.623748799999994
Zr 1.6231002499999931 2.8429008 0.8039474999999996
Cu -2.4887008500000007 -1.243699499999999 -1.4273528999999954
Cu -1.2614975500000014 2.8996997 -0.8864515999999938
Cu -2.105796749999996 -1.1924003999999995 0.9278487999999996
Cu 1.1961974499999997 -1.2676997000000005 1.2125473000000042
Zr -0.8620987500000012 -0.20439950000000007 2.945648200000001
Cu -1.0550003500000003 2.4187999000000007 1.5185470999999993
Zr -0.14089964999999438 0.2945991000000001 -0.12165069999999645
