13

Zr 1.2591018999999974 -1.8158497999999996 -2.0456027
Cu -1.001598399999999 -2.5071502000000008 -0.9643000999999991
Zr -0.7438010999999989 -0.6168504000000015 1.947599499999999
Zr 1.7596015999999963 -2.1855512 0.6719990000000031
Cu -0.5587006000000017 1.817948799999999 -2.1942004999999973
Cu -0.6577988000000019 -0.4812492999999991 -2.9619998999999986
Zr -2.7853011999999993 -0.6836494999999987 -0.9465006999999979
Cu 1.756000499999999 2.0598501999999987 1.5164967000000011
Zr 1.8791999999999973 1.7663493000000008 -1.9176005999999965
Cu 1.9697989999999947 -0.046450199999999775 2.9619998999999986
Cu 2.7853011999999993 0.130549900000001 0.0825977999999985
Zr -0.4367981000000043 2.5071502000000008 0.7205983000000025
Cu 0.506900899999998 -0.0007500999999985325 -0.2726001000000018
