11

Zr -0.5815896900000084 -0.35524944999999875 -2.3590002000000005
Cu 2.506791090000007 -1.633451449999999 -1.2081994999999992
Cu 2.129081290000002 -2.4810505500000026 1.1244002000000002
Cu -0.6851891899999956 -2.646749549999999 0.4017000000000017
Cu 0.10597139000000766 -1.2334499499999971 2.211199800000003
Zr -2.50679109 -0.41274834999999754 -0.043398799999998516
Cu 1.9407214900000085 0.9029521500000008 -1.4722985999999985
Zr 2.465631490000007 0.32795135000000286 1.4520998000000027
Zr -0.608689290000008 2.646749549999999 -0.8835000999999991
Cu -1.6062936900000082 1.0309504500000024 2.3590002000000005
Cu 0.5660514900000067 -0.4206486500000004 -0.09719939999999738
